MOTS_c
     RDKit          2D

153158  0  0  0  0  0  0  0  0999 V2000
  -16.7465    3.3453    0.0000 N   0  0  0  0  0  0  0  0  0  0  0  0
  -17.6120    2.1202    0.0000 C   0  0  0  0  0  0  0  0  0  0  0  0
  -16.9838    0.7581    0.0000 C   0  0  0  0  0  0  0  0  0  0  0  0
  -17.8494   -0.4670    0.0000 O   0  0  0  0  0  0  0  0  0  0  0  0
  -19.1058    2.2572    0.0000 C   0  0  0  0  0  0  0  0  0  0  0  0
  -19.7340    3.6193    0.0000 C   0  0  0  0  0  0  0  0  0  0  0  0
  -21.2277    3.7564    0.0000 S   0  0  0  0  0  0  0  0  0  0  0  0
  -21.8559    5.1185    0.0000 C   0  0  0  0  0  0  0  0  0  0  0  0
  -15.4901    0.6210    0.0000 N   0  0  0  0  0  0  0  0  0  0  0  0
  -14.8619   -0.7411    0.0000 C   0  0  0  0  0  0  0  0  0  0  0  0
  -13.3682   -0.8781    0.0000 C   0  0  0  0  0  0  0  0  0  0  0  0
  -12.7400   -2.2402    0.0000 O   0  0  0  0  0  0  0  0  0  0  0  0
  -15.7275   -1.9662    0.0000 C   0  0  0  0  0  0  0  0  0  0  0  0
  -17.2212   -1.8291    0.0000 C   0  0  0  0  0  0  0  0  0  0  0  0
  -18.0867   -3.0542    0.0000 C   0  0  0  0  0  0  0  0  0  0  0  0
  -19.5805   -2.9172    0.0000 N   0  0  0  0  0  0  0  0  0  0  0  0
  -20.4460   -4.1423    0.0000 C   0  0  0  0  0  0  0  0  0  0  0  0
  -19.8178   -5.5044    0.0000 N   0  0  0  0  0  0  0  0  0  0  0  0
  -21.9397   -4.0053    0.0000 N   0  0  0  0  0  0  0  0  0  0  0  0
  -12.5027    0.3470    0.0000 N   0  0  0  0  0  0  0  0  0  0  0  0
  -11.0089    0.2099    0.0000 C   0  0  0  0  0  0  0  0  0  0  0  0
  -10.3807   -1.1522    0.0000 C   0  0  0  0  0  0  0  0  0  0  0  0
   -8.8870   -1.2892    0.0000 O   0  0  0  0  0  0  0  0  0  0  0  0
  -10.1434    1.4350    0.0000 C   0  0  0  0  0  0  0  0  0  0  0  0
  -10.7716    2.7972    0.0000 C   0  0  0  0  0  0  0  0  0  0  0  0
  -12.2428    3.0896    0.0000 C   0  0  0  0  0  0  0  0  0  0  0  0
  -10.0389    4.1060    0.0000 C   0  0  0  0  0  0  0  0  0  0  0  0
  -12.4193    4.5791    0.0000 N   0  0  0  0  0  0  0  0  0  0  0  0
  -11.0572    5.2073    0.0000 C   0  0  0  0  0  0  0  0  0  0  0  0
   -8.5759    4.4373    0.0000 C   0  0  0  0  0  0  0  0  0  0  0  0
  -10.6126    6.6399    0.0000 C   0  0  0  0  0  0  0  0  0  0  0  0
   -8.1313    5.8699    0.0000 C   0  0  0  0  0  0  0  0  0  0  0  0
   -9.1497    6.9712    0.0000 C   0  0  0  0  0  0  0  0  0  0  0  0
  -11.2463   -2.3773    0.0000 N   0  0  0  0  0  0  0  0  0  0  0  0
  -10.6181   -3.7394    0.0000 C   0  0  0  0  0  0  0  0  0  0  0  0
   -9.1244   -3.8764    0.0000 C   0  0  0  0  0  0  0  0  0  0  0  0
   -8.2588   -2.6513    0.0000 O   0  0  0  0  0  0  0  0  0  0  0  0
  -11.4836   -4.9645    0.0000 C   0  0  0  0  0  0  0  0  0  0  0  0
  -10.8554   -6.3266    0.0000 C   0  0  0  0  0  0  0  0  0  0  0  0
  -11.7210   -7.5517    0.0000 C   0  0  0  0  0  0  0  0  0  0  0  0
  -13.2147   -7.4147    0.0000 O   0  0  0  0  0  0  0  0  0  0  0  0
  -11.0928   -8.9138    0.0000 N   0  0  0  0  0  0  0  0  0  0  0  0
   -8.4962   -5.2385    0.0000 N   0  0  0  0  0  0  0  0  0  0  0  0
   -7.0024   -5.3756    0.0000 C   0  0  0  0  0  0  0  0  0  0  0  0
   -6.1369   -4.1505    0.0000 C   0  0  0  0  0  0  0  0  0  0  0  0
   -6.7651   -2.7884    0.0000 O   0  0  0  0  0  0  0  0  0  0  0  0
   -6.3742   -6.7377    0.0000 C   0  0  0  0  0  0  0  0  0  0  0  0
   -4.8805   -6.8747    0.0000 C   0  0  0  0  0  0  0  0  0  0  0  0
   -4.2523   -8.2368    0.0000 C   0  0  0  0  0  0  0  0  0  0  0  0
   -5.1179   -9.4619    0.0000 O   0  0  0  0  0  0  0  0  0  0  0  0
   -2.7586   -8.3739    0.0000 O   0  0  0  0  0  0  0  0  0  0  0  0
   -4.6432   -4.2875    0.0000 N   0  0  0  0  0  0  0  0  0  0  0  0
   -3.7776   -3.0624    0.0000 C   0  0  0  0  0  0  0  0  0  0  0  0
   -4.4058   -1.7003    0.0000 C   0  0  0  0  0  0  0  0  0  0  0  0
   -5.8996   -1.5633    0.0000 O   0  0  0  0  0  0  0  0  0  0  0  0
   -2.2839   -3.1995    0.0000 C   0  0  0  0  0  0  0  0  0  0  0  0
   -1.4184   -1.9744    0.0000 C   0  0  0  0  0  0  0  0  0  0  0  0
    0.0754   -2.1114    0.0000 S   0  0  0  0  0  0  0  0  0  0  0  0
    0.9409   -0.8863    0.0000 C   0  0  0  0  0  0  0  0  0  0  0  0
   -3.5403   -0.4752    0.0000 N   0  0  0  0  0  0  0  0  0  0  0  0
   -4.1685    0.8869    0.0000 C   0  0  0  0  0  0  0  0  0  0  0  0
   -3.3030    2.1120    0.0000 C   0  0  0  0  0  0  0  0  0  0  0  0
   -1.8092    1.9750    0.0000 O   0  0  0  0  0  0  0  0  0  0  0  0
   -3.9311    3.4741    0.0000 N   0  0  0  0  0  0  0  0  0  0  0  0
   -3.0656    4.6992    0.0000 C   0  0  0  0  0  0  0  0  0  0  0  0
   -1.5719    4.5622    0.0000 C   0  0  0  0  0  0  0  0  0  0  0  0
   -0.9437    3.2001    0.0000 O   0  0  0  0  0  0  0  0  0  0  0  0
   -3.6938    6.0613    0.0000 C   0  0  0  0  0  0  0  0  0  0  0  0
   -2.8283    7.2864    0.0000 C   0  0  0  0  0  0  0  0  0  0  0  0
   -1.3345    7.1494    0.0000 C   0  0  0  0  0  0  0  0  0  0  0  0
   -3.4565    8.6486    0.0000 C   0  0  0  0  0  0  0  0  0  0  0  0
   -0.4690    8.3745    0.0000 C   0  0  0  0  0  0  0  0  0  0  0  0
   -2.5909    9.8736    0.0000 C   0  0  0  0  0  0  0  0  0  0  0  0
   -1.0972    9.7366    0.0000 C   0  0  0  0  0  0  0  0  0  0  0  0
   -0.2317   10.9617    0.0000 O   0  0  0  0  0  0  0  0  0  0  0  0
   -0.7063    5.7873    0.0000 N   0  0  0  0  0  0  0  0  0  0  0  0
    0.7874    5.6502    0.0000 C   0  0  0  0  0  0  0  0  0  0  0  0
    1.4156    4.2881    0.0000 C   0  0  0  0  0  0  0  0  0  0  0  0
    0.5500    3.0630    0.0000 O   0  0  0  0  0  0  0  0  0  0  0  0
    1.6529    6.8753    0.0000 C   0  0  0  0  0  0  0  0  0  0  0  0
    3.1466    6.7383    0.0000 C   0  0  0  0  0  0  0  0  0  0  0  0
    1.0247    8.2375    0.0000 C   0  0  0  0  0  0  0  0  0  0  0  0
    1.8903    9.4625    0.0000 C   0  0  0  0  0  0  0  0  0  0  0  0
    2.9093    4.1511    0.0000 N   0  0  0  0  0  0  0  0  0  0  0  0
    3.5375    2.7890    0.0000 C   0  0  0  0  0  0  0  0  0  0  0  0
    2.6720    1.5639    0.0000 C   0  0  0  0  0  0  0  0  0  0  0  0
    1.1782    1.7009    0.0000 O   0  0  0  0  0  0  0  0  0  0  0  0
    5.0312    2.6519    0.0000 C   0  0  0  0  0  0  0  0  0  0  0  0
    5.8968    3.8770    0.0000 C   0  0  0  0  0  0  0  0  0  0  0  0
    5.2686    5.2392    0.0000 C   0  0  0  0  0  0  0  0  0  0  0  0
    7.3905    3.7400    0.0000 C   0  0  0  0  0  0  0  0  0  0  0  0
    6.1341    6.4642    0.0000 C   0  0  0  0  0  0  0  0  0  0  0  0
    8.2560    4.9651    0.0000 C   0  0  0  0  0  0  0  0  0  0  0  0
    7.6278    6.3272    0.0000 C   0  0  0  0  0  0  0  0  0  0  0  0
    3.3001    0.2018    0.0000 N   0  0  0  0  0  0  0  0  0  0  0  0
    4.7939    0.0647    0.0000 C   0  0  0  0  0  0  0  0  0  0  0  0
    5.4221   -1.2974    0.0000 C   0  0  0  0  0  0  0  0  0  0  0  0
    6.9158   -1.4344    0.0000 O   0  0  0  0  0  0  0  0  0  0  0  0
    5.6594    1.2898    0.0000 C   0  0  0  0  0  0  0  0  0  0  0  0
    7.1531    1.1528    0.0000 C   0  0  0  0  0  0  0  0  0  0  0  0
    7.7813   -0.2093    0.0000 C   0  0  0  0  0  0  0  0  0  0  0  0
    8.0187    2.3779    0.0000 C   0  0  0  0  0  0  0  0  0  0  0  0
    9.2751   -0.3464    0.0000 C   0  0  0  0  0  0  0  0  0  0  0  0
    9.5124    2.2409    0.0000 C   0  0  0  0  0  0  0  0  0  0  0  0
   10.1406    0.8787    0.0000 C   0  0  0  0  0  0  0  0  0  0  0  0
   11.6343    0.7417    0.0000 O   0  0  0  0  0  0  0  0  0  0  0  0
    4.5565   -2.5225    0.0000 N   0  0  0  0  0  0  0  0  0  0  0  0
    5.0389   -3.9428    0.0000 C   0  0  0  0  0  0  0  0  0  0  0  0
    6.4715   -4.3874    0.0000 C   0  0  0  0  0  0  0  0  0  0  0  0
    7.5728   -3.3690    0.0000 O   0  0  0  0  0  0  0  0  0  0  0  0
    3.8372   -4.8405    0.0000 C   0  0  0  0  0  0  0  0  0  0  0  0
    2.6121   -3.9749    0.0000 C   0  0  0  0  0  0  0  0  0  0  0  0
    3.0567   -2.5423    0.0000 C   0  0  0  0  0  0  0  0  0  0  0  0
    6.8028   -5.8504    0.0000 N   0  0  0  0  0  0  0  0  0  0  0  0
    8.2354   -6.2950    0.0000 C   0  0  0  0  0  0  0  0  0  0  0  0
    9.3367   -5.2766    0.0000 C   0  0  0  0  0  0  0  0  0  0  0  0
    9.0054   -3.8136    0.0000 O   0  0  0  0  0  0  0  0  0  0  0  0
    8.5666   -7.7579    0.0000 C   0  0  0  0  0  0  0  0  0  0  0  0
    9.9992   -8.2025    0.0000 C   0  0  0  0  0  0  0  0  0  0  0  0
   10.3305   -9.6655    0.0000 C   0  0  0  0  0  0  0  0  0  0  0  0
   11.7631  -10.1101    0.0000 N   0  0  0  0  0  0  0  0  0  0  0  0
   12.0943  -11.5731    0.0000 C   0  0  0  0  0  0  0  0  0  0  0  0
   10.9930  -12.5914    0.0000 N   0  0  0  0  0  0  0  0  0  0  0  0
   13.5269  -12.0177    0.0000 N   0  0  0  0  0  0  0  0  0  0  0  0
   10.7693   -5.7212    0.0000 N   0  0  0  0  0  0  0  0  0  0  0  0
   11.8706   -4.7028    0.0000 C   0  0  0  0  0  0  0  0  0  0  0  0
   11.5394   -3.2399    0.0000 C   0  0  0  0  0  0  0  0  0  0  0  0
   10.4633   -3.0455    0.0000 O   0  0  0  0  0  0  0  0  0  0  0  0
   13.3032   -5.1474    0.0000 C   0  0  0  0  0  0  0  0  0  0  0  0
   14.4045   -4.1291    0.0000 C   0  0  0  0  0  0  0  0  0  0  0  0
   15.8371   -4.5737    0.0000 C   0  0  0  0  0  0  0  0  0  0  0  0
   16.9385   -3.5553    0.0000 C   0  0  0  0  0  0  0  0  0  0  0  0
   18.3711   -3.9999    0.0000 N   0  0  0  0  0  0  0  0  0  0  0  0
   12.6407   -2.2215    0.0000 N   0  0  0  0  0  0  0  0  0  0  0  0
   12.3094   -0.7585    0.0000 C   0  0  0  0  0  0  0  0  0  0  0  0
   13.4108    0.2598    0.0000 C   0  0  0  0  0  0  0  0  0  0  0  0
   14.8434   -0.1848    0.0000 O   0  0  0  0  0  0  0  0  0  0  0  0
   10.8768   -0.3139    0.0000 C   0  0  0  0  0  0  0  0  0  0  0  0
    9.7755   -1.3323    0.0000 C   0  0  0  0  0  0  0  0  0  0  0  0
    9.8852   -2.4203    0.0000 C   0  0  0  0  0  0  0  0  0  0  0  0
    8.3429   -0.8877    0.0000 C   0  0  0  0  0  0  0  0  0  0  0  0
   13.0795    1.7228    0.0000 N   0  0  0  0  0  0  0  0  0  0  0  0
   14.1808    2.7411    0.0000 C   0  0  0  0  0  0  0  0  0  0  0  0
   15.6134    2.2965    0.0000 C   0  0  0  0  0  0  0  0  0  0  0  0
   15.9447    0.8336    0.0000 O   0  0  0  0  0  0  0  0  0  0  0  0
   13.8496    4.2041    0.0000 C   0  0  0  0  0  0  0  0  0  0  0  0
   14.9509    5.2225    0.0000 C   0  0  0  0  0  0  0  0  0  0  0  0
   14.6196    6.6854    0.0000 C   0  0  0  0  0  0  0  0  0  0  0  0
   15.7210    7.7038    0.0000 N   0  0  0  0  0  0  0  0  0  0  0  0
   15.3897    9.1668    0.0000 C   0  0  0  0  0  0  0  0  0  0  0  0
   13.9571    9.6114    0.0000 N   0  0  0  0  0  0  0  0  0  0  0  0
   16.4910   10.1851    0.0000 N   0  0  0  0  0  0  0  0  0  0  0  0
   16.7148    3.3149    0.0000 O   0  0  0  0  0  0  0  0  0  0  0  0
  2  1  1  6
  2  3  1  0
  3  4  2  0
  2  5  1  0
  5  6  1  0
  6  7  1  0
  7  8  1  0
  9 10  1  0
 10 11  1  0
 11 12  2  0
 10 13  1  6
 13 14  1  0
 14 15  1  0
 15 16  1  0
 16 17  1  0
 17 18  2  0
 17 19  1  0
  3  9  1  0
 20 21  1  0
 21 22  1  0
 22 23  2  0
 21 24  1  1
 24 25  1  0
 25 26  2  0
 25 27  1  0
 26 28  1  0
 27 29  1  0
 27 30  2  0
 28 29  1  0
 29 31  2  0
 30 32  1  0
 31 33  1  0
 32 33  2  0
 11 20  1  0
 34 35  1  0
 35 36  1  0
 36 37  2  0
 35 38  1  6
 38 39  1  0
 39 40  1  0
 40 41  2  0
 40 42  1  0
 22 34  1  0
 43 44  1  0
 44 45  1  0
 45 46  2  0
 44 47  1  6
 47 48  1  0
 48 49  1  0
 49 50  2  0
 49 51  1  0
 36 43  1  0
 52 53  1  0
 53 54  1  0
 54 55  2  0
 53 56  1  6
 56 57  1  0
 57 58  1  0
 58 59  1  0
 45 52  1  0
 60 61  1  0
 61 62  1  0
 62 63  2  0
 54 60  1  0
 64 65  1  0
 65 66  1  0
 66 67  2  0
 65 68  1  1
 68 69  1  0
 69 70  1  0
 70 72  2  0
 72 74  1  0
 74 73  2  0
 73 71  1  0
 71 69  2  0
 74 75  1  0
 62 64  1  0
 77 76  1  1
 77 78  1  0
 78 79  2  0
 77 80  1  0
 80 81  1  6
 80 82  1  0
 82 83  1  0
 66 76  1  0
 84 85  1  0
 85 86  1  0
 86 87  2  0
 85 88  1  1
 88 89  1  0
 89 90  2  0
 90 92  1  0
 92 94  2  0
 94 93  1  0
 93 91  2  0
 91 89  1  0
 78 84  1  0
 95 96  1  0
 96 97  1  0
 97 98  2  0
 96 99  1  1
 99100  1  0
100101  1  0
101103  2  0
103105  1  0
105104  2  0
104102  1  0
102100  2  0
105106  1  0
 86 95  1  0
107108  1  0
108109  1  6
109110  2  0
108111  1  0
111112  1  0
112113  1  0
113107  1  0
 97107  1  0
114115  1  0
115116  1  0
116117  2  0
115118  1  6
118119  1  0
119120  1  0
120121  1  0
121122  1  0
122123  2  0
122124  1  0
109114  1  0
125126  1  0
126127  1  0
127128  2  0
126129  1  6
129130  1  0
130131  1  0
131132  1  0
132133  1  0
116125  1  0
134135  1  0
135136  1  0
136137  2  0
135138  1  1
138139  1  0
139140  1  0
139141  1  0
127134  1  0
142143  1  0
143144  1  0
144145  2  0
143146  1  1
146147  1  0
147148  1  0
148149  1  0
149150  1  0
150151  2  0
150152  1  0
136142  1  0
144153  1  0
M  END
>  <evidence_status>  (1)
published_parent_identity_reference

>  <limits>  (1)
Graph identity only; no demonstrated oral improvement

$$$$
MOTS_c_N_acetyl
     RDKit          2D

156161  0  0  0  0  0  0  0  0999 V2000
  -16.4662    2.9386    0.0000 N   0  0  0  0  0  0  0  0  0  0  0  0
  -17.3087    1.6976    0.0000 C   0  0  0  0  0  0  0  0  0  0  0  0
  -16.6551    0.3474    0.0000 C   0  0  0  0  0  0  0  0  0  0  0  0
  -17.4976   -0.8936    0.0000 O   0  0  0  0  0  0  0  0  0  0  0  0
  -18.8047    1.8067    0.0000 C   0  0  0  0  0  0  0  0  0  0  0  0
  -19.4582    3.1568    0.0000 C   0  0  0  0  0  0  0  0  0  0  0  0
  -20.9543    3.2659    0.0000 S   0  0  0  0  0  0  0  0  0  0  0  0
  -21.6078    4.6160    0.0000 C   0  0  0  0  0  0  0  0  0  0  0  0
  -15.1591    0.2384    0.0000 N   0  0  0  0  0  0  0  0  0  0  0  0
  -14.5055   -1.1118    0.0000 C   0  0  0  0  0  0  0  0  0  0  0  0
  -13.0095   -1.2208    0.0000 C   0  0  0  0  0  0  0  0  0  0  0  0
  -12.3559   -2.5710    0.0000 O   0  0  0  0  0  0  0  0  0  0  0  0
  -15.3480   -2.3528    0.0000 C   0  0  0  0  0  0  0  0  0  0  0  0
  -16.8440   -2.2437    0.0000 C   0  0  0  0  0  0  0  0  0  0  0  0
  -17.6865   -3.4848    0.0000 C   0  0  0  0  0  0  0  0  0  0  0  0
  -19.1825   -3.3757    0.0000 N   0  0  0  0  0  0  0  0  0  0  0  0
  -20.0250   -4.6168    0.0000 C   0  0  0  0  0  0  0  0  0  0  0  0
  -19.3715   -5.9669    0.0000 N   0  0  0  0  0  0  0  0  0  0  0  0
  -21.5210   -4.5077    0.0000 N   0  0  0  0  0  0  0  0  0  0  0  0
  -12.1670    0.0202    0.0000 N   0  0  0  0  0  0  0  0  0  0  0  0
  -10.6710   -0.0889    0.0000 C   0  0  0  0  0  0  0  0  0  0  0  0
  -10.0174   -1.4390    0.0000 C   0  0  0  0  0  0  0  0  0  0  0  0
   -8.5214   -1.5481    0.0000 O   0  0  0  0  0  0  0  0  0  0  0  0
   -9.8285    1.1522    0.0000 C   0  0  0  0  0  0  0  0  0  0  0  0
  -10.4821    2.5023    0.0000 C   0  0  0  0  0  0  0  0  0  0  0  0
  -11.9585    2.7672    0.0000 C   0  0  0  0  0  0  0  0  0  0  0  0
   -9.7739    3.8247    0.0000 C   0  0  0  0  0  0  0  0  0  0  0  0
  -12.1628    4.2532    0.0000 N   0  0  0  0  0  0  0  0  0  0  0  0
  -10.8127    4.9068    0.0000 C   0  0  0  0  0  0  0  0  0  0  0  0
   -8.3174    4.1832    0.0000 C   0  0  0  0  0  0  0  0  0  0  0  0
  -10.3950    6.3474    0.0000 C   0  0  0  0  0  0  0  0  0  0  0  0
   -7.8997    5.6239    0.0000 C   0  0  0  0  0  0  0  0  0  0  0  0
   -8.9385    6.7060    0.0000 C   0  0  0  0  0  0  0  0  0  0  0  0
  -10.8599   -2.6801    0.0000 N   0  0  0  0  0  0  0  0  0  0  0  0
  -10.2064   -4.0302    0.0000 C   0  0  0  0  0  0  0  0  0  0  0  0
   -8.7103   -4.1393    0.0000 C   0  0  0  0  0  0  0  0  0  0  0  0
   -7.8679   -2.8982    0.0000 O   0  0  0  0  0  0  0  0  0  0  0  0
  -11.0488   -5.2713    0.0000 C   0  0  0  0  0  0  0  0  0  0  0  0
  -10.3953   -6.6214    0.0000 C   0  0  0  0  0  0  0  0  0  0  0  0
  -11.2378   -7.8625    0.0000 C   0  0  0  0  0  0  0  0  0  0  0  0
  -12.7338   -7.7534    0.0000 O   0  0  0  0  0  0  0  0  0  0  0  0
  -10.5842   -9.2126    0.0000 N   0  0  0  0  0  0  0  0  0  0  0  0
   -8.0568   -5.4894    0.0000 N   0  0  0  0  0  0  0  0  0  0  0  0
   -6.5608   -5.5985    0.0000 C   0  0  0  0  0  0  0  0  0  0  0  0
   -5.7183   -4.3574    0.0000 C   0  0  0  0  0  0  0  0  0  0  0  0
   -6.3718   -3.0073    0.0000 O   0  0  0  0  0  0  0  0  0  0  0  0
   -5.9072   -6.9486    0.0000 C   0  0  0  0  0  0  0  0  0  0  0  0
   -4.4112   -7.0577    0.0000 C   0  0  0  0  0  0  0  0  0  0  0  0
   -3.7576   -8.4078    0.0000 C   0  0  0  0  0  0  0  0  0  0  0  0
   -4.6001   -9.6489    0.0000 O   0  0  0  0  0  0  0  0  0  0  0  0
   -2.2616   -8.5169    0.0000 O   0  0  0  0  0  0  0  0  0  0  0  0
   -4.2222   -4.4665    0.0000 N   0  0  0  0  0  0  0  0  0  0  0  0
   -3.3798   -3.2254    0.0000 C   0  0  0  0  0  0  0  0  0  0  0  0
   -4.0333   -1.8753    0.0000 C   0  0  0  0  0  0  0  0  0  0  0  0
   -5.5293   -1.7662    0.0000 O   0  0  0  0  0  0  0  0  0  0  0  0
   -1.8837   -3.3345    0.0000 C   0  0  0  0  0  0  0  0  0  0  0  0
   -1.0413   -2.0935    0.0000 C   0  0  0  0  0  0  0  0  0  0  0  0
    0.4548   -2.2025    0.0000 S   0  0  0  0  0  0  0  0  0  0  0  0
    1.2972   -0.9615    0.0000 C   0  0  0  0  0  0  0  0  0  0  0  0
   -3.1908   -0.6342    0.0000 N   0  0  0  0  0  0  0  0  0  0  0  0
   -3.8444    0.7159    0.0000 C   0  0  0  0  0  0  0  0  0  0  0  0
   -3.0019    1.9570    0.0000 C   0  0  0  0  0  0  0  0  0  0  0  0
   -1.5059    1.8479    0.0000 O   0  0  0  0  0  0  0  0  0  0  0  0
   -3.6555    3.3071    0.0000 N   0  0  0  0  0  0  0  0  0  0  0  0
   -2.8130    4.5482    0.0000 C   0  0  0  0  0  0  0  0  0  0  0  0
   -1.3170    4.4391    0.0000 C   0  0  0  0  0  0  0  0  0  0  0  0
   -0.6634    3.0889    0.0000 O   0  0  0  0  0  0  0  0  0  0  0  0
   -3.4665    5.8983    0.0000 C   0  0  0  0  0  0  0  0  0  0  0  0
   -2.6241    7.1394    0.0000 C   0  0  0  0  0  0  0  0  0  0  0  0
   -1.1280    7.0303    0.0000 C   0  0  0  0  0  0  0  0  0  0  0  0
   -3.2776    8.4895    0.0000 C   0  0  0  0  0  0  0  0  0  0  0  0
   -0.2856    8.2713    0.0000 C   0  0  0  0  0  0  0  0  0  0  0  0
   -2.4351    9.7306    0.0000 C   0  0  0  0  0  0  0  0  0  0  0  0
   -0.9391    9.6215    0.0000 C   0  0  0  0  0  0  0  0  0  0  0  0
   -0.0966   10.8625    0.0000 O   0  0  0  0  0  0  0  0  0  0  0  0
   -0.4745    5.6801    0.0000 N   0  0  0  0  0  0  0  0  0  0  0  0
    1.0215    5.5711    0.0000 C   0  0  0  0  0  0  0  0  0  0  0  0
    1.6751    4.2209    0.0000 C   0  0  0  0  0  0  0  0  0  0  0  0
    0.8326    2.9799    0.0000 O   0  0  0  0  0  0  0  0  0  0  0  0
    1.8640    6.8121    0.0000 C   0  0  0  0  0  0  0  0  0  0  0  0
    3.3601    6.7030    0.0000 C   0  0  0  0  0  0  0  0  0  0  0  0
    1.2105    8.1623    0.0000 C   0  0  0  0  0  0  0  0  0  0  0  0
    2.0530    9.4033    0.0000 C   0  0  0  0  0  0  0  0  0  0  0  0
    3.1711    4.1118    0.0000 N   0  0  0  0  0  0  0  0  0  0  0  0
    3.8247    2.7617    0.0000 C   0  0  0  0  0  0  0  0  0  0  0  0
    2.9822    1.5207    0.0000 C   0  0  0  0  0  0  0  0  0  0  0  0
    1.4862    1.6297    0.0000 O   0  0  0  0  0  0  0  0  0  0  0  0
    5.3207    2.6526    0.0000 C   0  0  0  0  0  0  0  0  0  0  0  0
    6.1632    3.8937    0.0000 C   0  0  0  0  0  0  0  0  0  0  0  0
    5.5096    5.2438    0.0000 C   0  0  0  0  0  0  0  0  0  0  0  0
    7.6592    3.7846    0.0000 C   0  0  0  0  0  0  0  0  0  0  0  0
    6.3521    6.4849    0.0000 C   0  0  0  0  0  0  0  0  0  0  0  0
    8.5017    5.0257    0.0000 C   0  0  0  0  0  0  0  0  0  0  0  0
    7.8481    6.3758    0.0000 C   0  0  0  0  0  0  0  0  0  0  0  0
    3.6358    0.1705    0.0000 N   0  0  0  0  0  0  0  0  0  0  0  0
    5.1318    0.0614    0.0000 C   0  0  0  0  0  0  0  0  0  0  0  0
    5.7853   -1.2887    0.0000 C   0  0  0  0  0  0  0  0  0  0  0  0
    7.2814   -1.3978    0.0000 O   0  0  0  0  0  0  0  0  0  0  0  0
    5.9743    1.3025    0.0000 C   0  0  0  0  0  0  0  0  0  0  0  0
    7.4703    1.1934    0.0000 C   0  0  0  0  0  0  0  0  0  0  0  0
    8.1238   -0.1567    0.0000 C   0  0  0  0  0  0  0  0  0  0  0  0
    8.3128    2.4345    0.0000 C   0  0  0  0  0  0  0  0  0  0  0  0
    9.6199   -0.2658    0.0000 C   0  0  0  0  0  0  0  0  0  0  0  0
    9.8088    2.3254    0.0000 C   0  0  0  0  0  0  0  0  0  0  0  0
   10.4623    0.9753    0.0000 C   0  0  0  0  0  0  0  0  0  0  0  0
   11.9584    0.8662    0.0000 O   0  0  0  0  0  0  0  0  0  0  0  0
    4.9429   -2.5298    0.0000 N   0  0  0  0  0  0  0  0  0  0  0  0
    5.4517   -3.9408    0.0000 C   0  0  0  0  0  0  0  0  0  0  0  0
    6.8924   -4.3586    0.0000 C   0  0  0  0  0  0  0  0  0  0  0  0
    7.9745   -3.3198    0.0000 O   0  0  0  0  0  0  0  0  0  0  0  0
    4.2669   -4.8608    0.0000 C   0  0  0  0  0  0  0  0  0  0  0  0
    3.0259   -4.0183    0.0000 C   0  0  0  0  0  0  0  0  0  0  0  0
    3.4436   -2.5777    0.0000 C   0  0  0  0  0  0  0  0  0  0  0  0
    7.2509   -5.8151    0.0000 N   0  0  0  0  0  0  0  0  0  0  0  0
    8.6916   -6.2328    0.0000 C   0  0  0  0  0  0  0  0  0  0  0  0
    9.7737   -5.1940    0.0000 C   0  0  0  0  0  0  0  0  0  0  0  0
    9.4151   -3.7375    0.0000 O   0  0  0  0  0  0  0  0  0  0  0  0
    9.0501   -7.6893    0.0000 C   0  0  0  0  0  0  0  0  0  0  0  0
   10.4908   -8.1070    0.0000 C   0  0  0  0  0  0  0  0  0  0  0  0
   10.8494   -9.5636    0.0000 C   0  0  0  0  0  0  0  0  0  0  0  0
   12.2900   -9.9813    0.0000 N   0  0  0  0  0  0  0  0  0  0  0  0
   12.6486  -11.4378    0.0000 C   0  0  0  0  0  0  0  0  0  0  0  0
   11.5665  -12.4766    0.0000 N   0  0  0  0  0  0  0  0  0  0  0  0
   14.0892  -11.8555    0.0000 N   0  0  0  0  0  0  0  0  0  0  0  0
   11.2143   -5.6118    0.0000 N   0  0  0  0  0  0  0  0  0  0  0  0
   12.2964   -4.5730    0.0000 C   0  0  0  0  0  0  0  0  0  0  0  0
   11.9379   -3.1165    0.0000 C   0  0  0  0  0  0  0  0  0  0  0  0
   10.8583   -2.9422    0.0000 O   0  0  0  0  0  0  0  0  0  0  0  0
   13.7371   -4.9907    0.0000 C   0  0  0  0  0  0  0  0  0  0  0  0
   14.8192   -3.9519    0.0000 C   0  0  0  0  0  0  0  0  0  0  0  0
   16.2598   -4.3697    0.0000 C   0  0  0  0  0  0  0  0  0  0  0  0
   17.3419   -3.3309    0.0000 C   0  0  0  0  0  0  0  0  0  0  0  0
   18.7826   -3.7486    0.0000 N   0  0  0  0  0  0  0  0  0  0  0  0
   13.0200   -2.0777    0.0000 N   0  0  0  0  0  0  0  0  0  0  0  0
   12.6614   -0.6212    0.0000 C   0  0  0  0  0  0  0  0  0  0  0  0
   13.7435    0.4176    0.0000 C   0  0  0  0  0  0  0  0  0  0  0  0
   15.1842   -0.0001    0.0000 O   0  0  0  0  0  0  0  0  0  0  0  0
   11.2208   -0.2034    0.0000 C   0  0  0  0  0  0  0  0  0  0  0  0
   10.1387   -1.2422    0.0000 C   0  0  0  0  0  0  0  0  0  0  0  0
   10.2687   -2.3280    0.0000 C   0  0  0  0  0  0  0  0  0  0  0  0
    8.6980   -0.8245    0.0000 C   0  0  0  0  0  0  0  0  0  0  0  0
   13.3849    1.8741    0.0000 N   0  0  0  0  0  0  0  0  0  0  0  0
   14.4670    2.9129    0.0000 C   0  0  0  0  0  0  0  0  0  0  0  0
   15.9077    2.4952    0.0000 C   0  0  0  0  0  0  0  0  0  0  0  0
   16.2663    1.0387    0.0000 O   0  0  0  0  0  0  0  0  0  0  0  0
   14.1085    4.3694    0.0000 C   0  0  0  0  0  0  0  0  0  0  0  0
   15.1906    5.4082    0.0000 C   0  0  0  0  0  0  0  0  0  0  0  0
   14.8320    6.8647    0.0000 C   0  0  0  0  0  0  0  0  0  0  0  0
   15.9141    7.9035    0.0000 N   0  0  0  0  0  0  0  0  0  0  0  0
   15.5556    9.3600    0.0000 C   0  0  0  0  0  0  0  0  0  0  0  0
   14.1149    9.7777    0.0000 N   0  0  0  0  0  0  0  0  0  0  0  0
   16.6377   10.3988    0.0000 N   0  0  0  0  0  0  0  0  0  0  0  0
   16.9898    3.5340    0.0000 O   0  0  0  0  0  0  0  0  0  0  0  0
  -17.1197    4.2888    0.0000 C   0  0  0  0  0  0  0  0  0  0  0  0
  -18.6158    4.3979    0.0000 O   0  0  0  0  0  0  0  0  0  0  0  0
  -16.2772    5.5298    0.0000 C   0  0  0  0  0  0  0  0  0  0  0  0
  1  2  1  0
  2  3  1  0
  3  4  2  0
  2  5  1  6
  5  6  1  0
  6  7  1  0
  7  8  1  0
  9 10  1  0
 10 11  1  0
 11 12  2  0
 10 13  1  6
 13 14  1  0
 14 15  1  0
 15 16  1  0
 16 17  1  0
 17 18  2  0
 17 19  1  0
  3  9  1  0
 20 21  1  0
 21 22  1  0
 22 23  2  0
 21 24  1  1
 24 25  1  0
 25 26  2  0
 25 27  1  0
 26 28  1  0
 27 29  1  0
 27 30  2  0
 28 29  1  0
 29 31  2  0
 30 32  1  0
 31 33  1  0
 32 33  2  0
 11 20  1  0
 34 35  1  0
 35 36  1  0
 36 37  2  0
 35 38  1  6
 38 39  1  0
 39 40  1  0
 40 41  2  0
 40 42  1  0
 22 34  1  0
 43 44  1  0
 44 45  1  0
 45 46  2  0
 44 47  1  6
 47 48  1  0
 48 49  1  0
 49 50  2  0
 49 51  1  0
 36 43  1  0
 52 53  1  0
 53 54  1  0
 54 55  2  0
 53 56  1  6
 56 57  1  0
 57 58  1  0
 58 59  1  0
 45 52  1  0
 60 61  1  0
 61 62  1  0
 62 63  2  0
 54 60  1  0
 64 65  1  0
 65 66  1  0
 66 67  2  0
 65 68  1  1
 68 69  1  0
 69 70  1  0
 70 72  2  0
 72 74  1  0
 74 73  2  0
 73 71  1  0
 71 69  2  0
 74 75  1  0
 62 64  1  0
 77 76  1  1
 77 78  1  0
 78 79  2  0
 77 80  1  0
 80 81  1  6
 80 82  1  0
 82 83  1  0
 66 76  1  0
 84 85  1  0
 85 86  1  0
 86 87  2  0
 85 88  1  1
 88 89  1  0
 89 90  2  0
 90 92  1  0
 92 94  2  0
 94 93  1  0
 93 91  2  0
 91 89  1  0
 78 84  1  0
 95 96  1  0
 96 97  1  0
 97 98  2  0
 96 99  1  1
 99100  1  0
100101  1  0
101103  2  0
103105  1  0
105104  2  0
104102  1  0
102100  2  0
105106  1  0
 86 95  1  0
107108  1  0
108109  1  6
109110  2  0
108111  1  0
111112  1  0
112113  1  0
113107  1  0
 97107  1  0
114115  1  0
115116  1  0
116117  2  0
115118  1  6
118119  1  0
119120  1  0
120121  1  0
121122  1  0
122123  2  0
122124  1  0
109114  1  0
125126  1  0
126127  1  0
127128  2  0
126129  1  6
129130  1  0
130131  1  0
131132  1  0
132133  1  0
116125  1  0
134135  1  0
135136  1  0
136137  2  0
135138  1  1
138139  1  0
139140  1  0
139141  1  0
127134  1  0
142143  1  0
143144  1  0
144145  2  0
143146  1  1
146147  1  0
147148  1  0
148149  1  0
149150  1  0
150151  2  0
150152  1  0
136142  1  0
144153  1  0
  1154  1  0
154155  2  0
154156  1  0
M  END
>  <evidence_status>  (2)
defined_terminal_comparison_unvalidated

>  <limits>  (2)
Graph identity only; no demonstrated oral improvement

$$$$
MOTS_c_C_amide
     RDKit          2D

153158  0  0  0  0  0  0  0  0999 V2000
  -16.7465    3.3453    0.0000 N   0  0  0  0  0  0  0  0  0  0  0  0
  -17.6120    2.1202    0.0000 C   0  0  0  0  0  0  0  0  0  0  0  0
  -16.9838    0.7581    0.0000 C   0  0  0  0  0  0  0  0  0  0  0  0
  -17.8494   -0.4670    0.0000 O   0  0  0  0  0  0  0  0  0  0  0  0
  -19.1058    2.2572    0.0000 C   0  0  0  0  0  0  0  0  0  0  0  0
  -19.7340    3.6193    0.0000 C   0  0  0  0  0  0  0  0  0  0  0  0
  -21.2277    3.7564    0.0000 S   0  0  0  0  0  0  0  0  0  0  0  0
  -21.8559    5.1185    0.0000 C   0  0  0  0  0  0  0  0  0  0  0  0
  -15.4901    0.6210    0.0000 N   0  0  0  0  0  0  0  0  0  0  0  0
  -14.8619   -0.7411    0.0000 C   0  0  0  0  0  0  0  0  0  0  0  0
  -13.3682   -0.8781    0.0000 C   0  0  0  0  0  0  0  0  0  0  0  0
  -12.7400   -2.2402    0.0000 O   0  0  0  0  0  0  0  0  0  0  0  0
  -15.7275   -1.9662    0.0000 C   0  0  0  0  0  0  0  0  0  0  0  0
  -17.2212   -1.8291    0.0000 C   0  0  0  0  0  0  0  0  0  0  0  0
  -18.0867   -3.0542    0.0000 C   0  0  0  0  0  0  0  0  0  0  0  0
  -19.5805   -2.9172    0.0000 N   0  0  0  0  0  0  0  0  0  0  0  0
  -20.4460   -4.1423    0.0000 C   0  0  0  0  0  0  0  0  0  0  0  0
  -19.8178   -5.5044    0.0000 N   0  0  0  0  0  0  0  0  0  0  0  0
  -21.9397   -4.0053    0.0000 N   0  0  0  0  0  0  0  0  0  0  0  0
  -12.5027    0.3470    0.0000 N   0  0  0  0  0  0  0  0  0  0  0  0
  -11.0089    0.2099    0.0000 C   0  0  0  0  0  0  0  0  0  0  0  0
  -10.3807   -1.1522    0.0000 C   0  0  0  0  0  0  0  0  0  0  0  0
   -8.8870   -1.2892    0.0000 O   0  0  0  0  0  0  0  0  0  0  0  0
  -10.1434    1.4350    0.0000 C   0  0  0  0  0  0  0  0  0  0  0  0
  -10.7716    2.7972    0.0000 C   0  0  0  0  0  0  0  0  0  0  0  0
  -12.2428    3.0896    0.0000 C   0  0  0  0  0  0  0  0  0  0  0  0
  -10.0389    4.1060    0.0000 C   0  0  0  0  0  0  0  0  0  0  0  0
  -12.4193    4.5791    0.0000 N   0  0  0  0  0  0  0  0  0  0  0  0
  -11.0572    5.2073    0.0000 C   0  0  0  0  0  0  0  0  0  0  0  0
   -8.5759    4.4373    0.0000 C   0  0  0  0  0  0  0  0  0  0  0  0
  -10.6126    6.6399    0.0000 C   0  0  0  0  0  0  0  0  0  0  0  0
   -8.1313    5.8699    0.0000 C   0  0  0  0  0  0  0  0  0  0  0  0
   -9.1497    6.9712    0.0000 C   0  0  0  0  0  0  0  0  0  0  0  0
  -11.2463   -2.3773    0.0000 N   0  0  0  0  0  0  0  0  0  0  0  0
  -10.6181   -3.7394    0.0000 C   0  0  0  0  0  0  0  0  0  0  0  0
   -9.1244   -3.8764    0.0000 C   0  0  0  0  0  0  0  0  0  0  0  0
   -8.2588   -2.6513    0.0000 O   0  0  0  0  0  0  0  0  0  0  0  0
  -11.4836   -4.9645    0.0000 C   0  0  0  0  0  0  0  0  0  0  0  0
  -10.8554   -6.3266    0.0000 C   0  0  0  0  0  0  0  0  0  0  0  0
  -11.7210   -7.5517    0.0000 C   0  0  0  0  0  0  0  0  0  0  0  0
  -13.2147   -7.4147    0.0000 O   0  0  0  0  0  0  0  0  0  0  0  0
  -11.0928   -8.9138    0.0000 N   0  0  0  0  0  0  0  0  0  0  0  0
   -8.4962   -5.2385    0.0000 N   0  0  0  0  0  0  0  0  0  0  0  0
   -7.0024   -5.3756    0.0000 C   0  0  0  0  0  0  0  0  0  0  0  0
   -6.1369   -4.1505    0.0000 C   0  0  0  0  0  0  0  0  0  0  0  0
   -6.7651   -2.7884    0.0000 O   0  0  0  0  0  0  0  0  0  0  0  0
   -6.3742   -6.7377    0.0000 C   0  0  0  0  0  0  0  0  0  0  0  0
   -4.8805   -6.8747    0.0000 C   0  0  0  0  0  0  0  0  0  0  0  0
   -4.2523   -8.2368    0.0000 C   0  0  0  0  0  0  0  0  0  0  0  0
   -5.1179   -9.4619    0.0000 O   0  0  0  0  0  0  0  0  0  0  0  0
   -2.7586   -8.3739    0.0000 O   0  0  0  0  0  0  0  0  0  0  0  0
   -4.6432   -4.2875    0.0000 N   0  0  0  0  0  0  0  0  0  0  0  0
   -3.7776   -3.0624    0.0000 C   0  0  0  0  0  0  0  0  0  0  0  0
   -4.4058   -1.7003    0.0000 C   0  0  0  0  0  0  0  0  0  0  0  0
   -5.8996   -1.5633    0.0000 O   0  0  0  0  0  0  0  0  0  0  0  0
   -2.2839   -3.1995    0.0000 C   0  0  0  0  0  0  0  0  0  0  0  0
   -1.4184   -1.9744    0.0000 C   0  0  0  0  0  0  0  0  0  0  0  0
    0.0754   -2.1114    0.0000 S   0  0  0  0  0  0  0  0  0  0  0  0
    0.9409   -0.8863    0.0000 C   0  0  0  0  0  0  0  0  0  0  0  0
   -3.5403   -0.4752    0.0000 N   0  0  0  0  0  0  0  0  0  0  0  0
   -4.1685    0.8869    0.0000 C   0  0  0  0  0  0  0  0  0  0  0  0
   -3.3030    2.1120    0.0000 C   0  0  0  0  0  0  0  0  0  0  0  0
   -1.8092    1.9750    0.0000 O   0  0  0  0  0  0  0  0  0  0  0  0
   -3.9311    3.4741    0.0000 N   0  0  0  0  0  0  0  0  0  0  0  0
   -3.0656    4.6992    0.0000 C   0  0  0  0  0  0  0  0  0  0  0  0
   -1.5719    4.5622    0.0000 C   0  0  0  0  0  0  0  0  0  0  0  0
   -0.9437    3.2001    0.0000 O   0  0  0  0  0  0  0  0  0  0  0  0
   -3.6938    6.0613    0.0000 C   0  0  0  0  0  0  0  0  0  0  0  0
   -2.8283    7.2864    0.0000 C   0  0  0  0  0  0  0  0  0  0  0  0
   -1.3345    7.1494    0.0000 C   0  0  0  0  0  0  0  0  0  0  0  0
   -3.4565    8.6486    0.0000 C   0  0  0  0  0  0  0  0  0  0  0  0
   -0.4690    8.3745    0.0000 C   0  0  0  0  0  0  0  0  0  0  0  0
   -2.5909    9.8736    0.0000 C   0  0  0  0  0  0  0  0  0  0  0  0
   -1.0972    9.7366    0.0000 C   0  0  0  0  0  0  0  0  0  0  0  0
   -0.2317   10.9617    0.0000 O   0  0  0  0  0  0  0  0  0  0  0  0
   -0.7063    5.7873    0.0000 N   0  0  0  0  0  0  0  0  0  0  0  0
    0.7874    5.6502    0.0000 C   0  0  0  0  0  0  0  0  0  0  0  0
    1.4156    4.2881    0.0000 C   0  0  0  0  0  0  0  0  0  0  0  0
    0.5500    3.0630    0.0000 O   0  0  0  0  0  0  0  0  0  0  0  0
    1.6529    6.8753    0.0000 C   0  0  0  0  0  0  0  0  0  0  0  0
    3.1466    6.7383    0.0000 C   0  0  0  0  0  0  0  0  0  0  0  0
    1.0247    8.2375    0.0000 C   0  0  0  0  0  0  0  0  0  0  0  0
    1.8903    9.4625    0.0000 C   0  0  0  0  0  0  0  0  0  0  0  0
    2.9093    4.1511    0.0000 N   0  0  0  0  0  0  0  0  0  0  0  0
    3.5375    2.7890    0.0000 C   0  0  0  0  0  0  0  0  0  0  0  0
    2.6720    1.5639    0.0000 C   0  0  0  0  0  0  0  0  0  0  0  0
    1.1782    1.7009    0.0000 O   0  0  0  0  0  0  0  0  0  0  0  0
    5.0312    2.6519    0.0000 C   0  0  0  0  0  0  0  0  0  0  0  0
    5.8968    3.8770    0.0000 C   0  0  0  0  0  0  0  0  0  0  0  0
    5.2686    5.2392    0.0000 C   0  0  0  0  0  0  0  0  0  0  0  0
    7.3905    3.7400    0.0000 C   0  0  0  0  0  0  0  0  0  0  0  0
    6.1341    6.4642    0.0000 C   0  0  0  0  0  0  0  0  0  0  0  0
    8.2560    4.9651    0.0000 C   0  0  0  0  0  0  0  0  0  0  0  0
    7.6278    6.3272    0.0000 C   0  0  0  0  0  0  0  0  0  0  0  0
    3.3001    0.2018    0.0000 N   0  0  0  0  0  0  0  0  0  0  0  0
    4.7939    0.0647    0.0000 C   0  0  0  0  0  0  0  0  0  0  0  0
    5.4221   -1.2974    0.0000 C   0  0  0  0  0  0  0  0  0  0  0  0
    6.9158   -1.4344    0.0000 O   0  0  0  0  0  0  0  0  0  0  0  0
    5.6594    1.2898    0.0000 C   0  0  0  0  0  0  0  0  0  0  0  0
    7.1531    1.1528    0.0000 C   0  0  0  0  0  0  0  0  0  0  0  0
    7.7813   -0.2093    0.0000 C   0  0  0  0  0  0  0  0  0  0  0  0
    8.0187    2.3779    0.0000 C   0  0  0  0  0  0  0  0  0  0  0  0
    9.2751   -0.3464    0.0000 C   0  0  0  0  0  0  0  0  0  0  0  0
    9.5124    2.2409    0.0000 C   0  0  0  0  0  0  0  0  0  0  0  0
   10.1406    0.8787    0.0000 C   0  0  0  0  0  0  0  0  0  0  0  0
   11.6343    0.7417    0.0000 O   0  0  0  0  0  0  0  0  0  0  0  0
    4.5565   -2.5225    0.0000 N   0  0  0  0  0  0  0  0  0  0  0  0
    5.0389   -3.9428    0.0000 C   0  0  0  0  0  0  0  0  0  0  0  0
    6.4715   -4.3874    0.0000 C   0  0  0  0  0  0  0  0  0  0  0  0
    7.5728   -3.3690    0.0000 O   0  0  0  0  0  0  0  0  0  0  0  0
    3.8372   -4.8405    0.0000 C   0  0  0  0  0  0  0  0  0  0  0  0
    2.6121   -3.9749    0.0000 C   0  0  0  0  0  0  0  0  0  0  0  0
    3.0567   -2.5423    0.0000 C   0  0  0  0  0  0  0  0  0  0  0  0
    6.8028   -5.8504    0.0000 N   0  0  0  0  0  0  0  0  0  0  0  0
    8.2354   -6.2950    0.0000 C   0  0  0  0  0  0  0  0  0  0  0  0
    9.3367   -5.2766    0.0000 C   0  0  0  0  0  0  0  0  0  0  0  0
    9.0054   -3.8136    0.0000 O   0  0  0  0  0  0  0  0  0  0  0  0
    8.5666   -7.7579    0.0000 C   0  0  0  0  0  0  0  0  0  0  0  0
    9.9992   -8.2025    0.0000 C   0  0  0  0  0  0  0  0  0  0  0  0
   10.3305   -9.6655    0.0000 C   0  0  0  0  0  0  0  0  0  0  0  0
   11.7631  -10.1101    0.0000 N   0  0  0  0  0  0  0  0  0  0  0  0
   12.0943  -11.5731    0.0000 C   0  0  0  0  0  0  0  0  0  0  0  0
   10.9930  -12.5914    0.0000 N   0  0  0  0  0  0  0  0  0  0  0  0
   13.5269  -12.0177    0.0000 N   0  0  0  0  0  0  0  0  0  0  0  0
   10.7693   -5.7212    0.0000 N   0  0  0  0  0  0  0  0  0  0  0  0
   11.8706   -4.7028    0.0000 C   0  0  0  0  0  0  0  0  0  0  0  0
   11.5394   -3.2399    0.0000 C   0  0  0  0  0  0  0  0  0  0  0  0
   10.4633   -3.0455    0.0000 O   0  0  0  0  0  0  0  0  0  0  0  0
   13.3032   -5.1474    0.0000 C   0  0  0  0  0  0  0  0  0  0  0  0
   14.4045   -4.1291    0.0000 C   0  0  0  0  0  0  0  0  0  0  0  0
   15.8371   -4.5737    0.0000 C   0  0  0  0  0  0  0  0  0  0  0  0
   16.9385   -3.5553    0.0000 C   0  0  0  0  0  0  0  0  0  0  0  0
   18.3711   -3.9999    0.0000 N   0  0  0  0  0  0  0  0  0  0  0  0
   12.6407   -2.2215    0.0000 N   0  0  0  0  0  0  0  0  0  0  0  0
   12.3094   -0.7585    0.0000 C   0  0  0  0  0  0  0  0  0  0  0  0
   13.4108    0.2598    0.0000 C   0  0  0  0  0  0  0  0  0  0  0  0
   14.8434   -0.1848    0.0000 O   0  0  0  0  0  0  0  0  0  0  0  0
   10.8768   -0.3139    0.0000 C   0  0  0  0  0  0  0  0  0  0  0  0
    9.7755   -1.3323    0.0000 C   0  0  0  0  0  0  0  0  0  0  0  0
    9.8852   -2.4203    0.0000 C   0  0  0  0  0  0  0  0  0  0  0  0
    8.3429   -0.8877    0.0000 C   0  0  0  0  0  0  0  0  0  0  0  0
   13.0795    1.7228    0.0000 N   0  0  0  0  0  0  0  0  0  0  0  0
   14.1808    2.7411    0.0000 C   0  0  0  0  0  0  0  0  0  0  0  0
   15.6134    2.2965    0.0000 C   0  0  0  0  0  0  0  0  0  0  0  0
   15.9447    0.8336    0.0000 O   0  0  0  0  0  0  0  0  0  0  0  0
   13.8496    4.2041    0.0000 C   0  0  0  0  0  0  0  0  0  0  0  0
   14.9509    5.2225    0.0000 C   0  0  0  0  0  0  0  0  0  0  0  0
   14.6196    6.6854    0.0000 C   0  0  0  0  0  0  0  0  0  0  0  0
   15.7210    7.7038    0.0000 N   0  0  0  0  0  0  0  0  0  0  0  0
   15.3897    9.1668    0.0000 C   0  0  0  0  0  0  0  0  0  0  0  0
   13.9571    9.6114    0.0000 N   0  0  0  0  0  0  0  0  0  0  0  0
   16.4910   10.1851    0.0000 N   0  0  0  0  0  0  0  0  0  0  0  0
   16.7148    3.3149    0.0000 N   0  0  0  0  0  0  0  0  0  0  0  0
  2  1  1  6
  2  3  1  0
  3  4  2  0
  2  5  1  0
  5  6  1  0
  6  7  1  0
  7  8  1  0
  9 10  1  0
 10 11  1  0
 11 12  2  0
 10 13  1  6
 13 14  1  0
 14 15  1  0
 15 16  1  0
 16 17  1  0
 17 18  2  0
 17 19  1  0
  3  9  1  0
 20 21  1  0
 21 22  1  0
 22 23  2  0
 21 24  1  1
 24 25  1  0
 25 26  2  0
 25 27  1  0
 26 28  1  0
 27 29  1  0
 27 30  2  0
 28 29  1  0
 29 31  2  0
 30 32  1  0
 31 33  1  0
 32 33  2  0
 11 20  1  0
 34 35  1  0
 35 36  1  0
 36 37  2  0
 35 38  1  6
 38 39  1  0
 39 40  1  0
 40 41  2  0
 40 42  1  0
 22 34  1  0
 43 44  1  0
 44 45  1  0
 45 46  2  0
 44 47  1  6
 47 48  1  0
 48 49  1  0
 49 50  2  0
 49 51  1  0
 36 43  1  0
 52 53  1  0
 53 54  1  0
 54 55  2  0
 53 56  1  6
 56 57  1  0
 57 58  1  0
 58 59  1  0
 45 52  1  0
 60 61  1  0
 61 62  1  0
 62 63  2  0
 54 60  1  0
 64 65  1  0
 65 66  1  0
 66 67  2  0
 65 68  1  1
 68 69  1  0
 69 70  1  0
 70 72  2  0
 72 74  1  0
 74 73  2  0
 73 71  1  0
 71 69  2  0
 74 75  1  0
 62 64  1  0
 77 76  1  1
 77 78  1  0
 78 79  2  0
 77 80  1  0
 80 81  1  6
 80 82  1  0
 82 83  1  0
 66 76  1  0
 84 85  1  0
 85 86  1  0
 86 87  2  0
 85 88  1  1
 88 89  1  0
 89 90  2  0
 90 92  1  0
 92 94  2  0
 94 93  1  0
 93 91  2  0
 91 89  1  0
 78 84  1  0
 95 96  1  0
 96 97  1  0
 97 98  2  0
 96 99  1  1
 99100  1  0
100101  1  0
101103  2  0
103105  1  0
105104  2  0
104102  1  0
102100  2  0
105106  1  0
 86 95  1  0
107108  1  0
108109  1  6
109110  2  0
108111  1  0
111112  1  0
112113  1  0
113107  1  0
 97107  1  0
114115  1  0
115116  1  0
116117  2  0
115118  1  6
118119  1  0
119120  1  0
120121  1  0
121122  1  0
122123  2  0
122124  1  0
109114  1  0
125126  1  0
126127  1  0
127128  2  0
126129  1  6
129130  1  0
130131  1  0
131132  1  0
132133  1  0
116125  1  0
134135  1  0
135136  1  0
136137  2  0
135138  1  1
138139  1  0
139140  1  0
139141  1  0
127134  1  0
142143  1  0
143144  1  0
144145  2  0
143146  1  1
146147  1  0
147148  1  0
148149  1  0
149150  1  0
150151  2  0
150152  1  0
136142  1  0
144153  1  0
M  END
>  <evidence_status>  (3)
defined_terminal_comparison_unvalidated

>  <limits>  (3)
Graph identity only; no demonstrated oral improvement

$$$$
MOTS_c_both_caps
     RDKit          2D

156161  0  0  0  0  0  0  0  0999 V2000
  -16.4662    2.9386    0.0000 N   0  0  0  0  0  0  0  0  0  0  0  0
  -17.3087    1.6976    0.0000 C   0  0  0  0  0  0  0  0  0  0  0  0
  -16.6551    0.3474    0.0000 C   0  0  0  0  0  0  0  0  0  0  0  0
  -17.4976   -0.8936    0.0000 O   0  0  0  0  0  0  0  0  0  0  0  0
  -18.8047    1.8067    0.0000 C   0  0  0  0  0  0  0  0  0  0  0  0
  -19.4582    3.1568    0.0000 C   0  0  0  0  0  0  0  0  0  0  0  0
  -20.9543    3.2659    0.0000 S   0  0  0  0  0  0  0  0  0  0  0  0
  -21.6078    4.6160    0.0000 C   0  0  0  0  0  0  0  0  0  0  0  0
  -15.1591    0.2384    0.0000 N   0  0  0  0  0  0  0  0  0  0  0  0
  -14.5055   -1.1118    0.0000 C   0  0  0  0  0  0  0  0  0  0  0  0
  -13.0095   -1.2208    0.0000 C   0  0  0  0  0  0  0  0  0  0  0  0
  -12.3559   -2.5710    0.0000 O   0  0  0  0  0  0  0  0  0  0  0  0
  -15.3480   -2.3528    0.0000 C   0  0  0  0  0  0  0  0  0  0  0  0
  -16.8440   -2.2437    0.0000 C   0  0  0  0  0  0  0  0  0  0  0  0
  -17.6865   -3.4848    0.0000 C   0  0  0  0  0  0  0  0  0  0  0  0
  -19.1825   -3.3757    0.0000 N   0  0  0  0  0  0  0  0  0  0  0  0
  -20.0250   -4.6168    0.0000 C   0  0  0  0  0  0  0  0  0  0  0  0
  -19.3715   -5.9669    0.0000 N   0  0  0  0  0  0  0  0  0  0  0  0
  -21.5210   -4.5077    0.0000 N   0  0  0  0  0  0  0  0  0  0  0  0
  -12.1670    0.0202    0.0000 N   0  0  0  0  0  0  0  0  0  0  0  0
  -10.6710   -0.0889    0.0000 C   0  0  0  0  0  0  0  0  0  0  0  0
  -10.0174   -1.4390    0.0000 C   0  0  0  0  0  0  0  0  0  0  0  0
   -8.5214   -1.5481    0.0000 O   0  0  0  0  0  0  0  0  0  0  0  0
   -9.8285    1.1522    0.0000 C   0  0  0  0  0  0  0  0  0  0  0  0
  -10.4821    2.5023    0.0000 C   0  0  0  0  0  0  0  0  0  0  0  0
  -11.9585    2.7672    0.0000 C   0  0  0  0  0  0  0  0  0  0  0  0
   -9.7739    3.8247    0.0000 C   0  0  0  0  0  0  0  0  0  0  0  0
  -12.1628    4.2532    0.0000 N   0  0  0  0  0  0  0  0  0  0  0  0
  -10.8127    4.9068    0.0000 C   0  0  0  0  0  0  0  0  0  0  0  0
   -8.3174    4.1832    0.0000 C   0  0  0  0  0  0  0  0  0  0  0  0
  -10.3950    6.3474    0.0000 C   0  0  0  0  0  0  0  0  0  0  0  0
   -7.8997    5.6239    0.0000 C   0  0  0  0  0  0  0  0  0  0  0  0
   -8.9385    6.7060    0.0000 C   0  0  0  0  0  0  0  0  0  0  0  0
  -10.8599   -2.6801    0.0000 N   0  0  0  0  0  0  0  0  0  0  0  0
  -10.2064   -4.0302    0.0000 C   0  0  0  0  0  0  0  0  0  0  0  0
   -8.7103   -4.1393    0.0000 C   0  0  0  0  0  0  0  0  0  0  0  0
   -7.8679   -2.8982    0.0000 O   0  0  0  0  0  0  0  0  0  0  0  0
  -11.0488   -5.2713    0.0000 C   0  0  0  0  0  0  0  0  0  0  0  0
  -10.3953   -6.6214    0.0000 C   0  0  0  0  0  0  0  0  0  0  0  0
  -11.2378   -7.8625    0.0000 C   0  0  0  0  0  0  0  0  0  0  0  0
  -12.7338   -7.7534    0.0000 O   0  0  0  0  0  0  0  0  0  0  0  0
  -10.5842   -9.2126    0.0000 N   0  0  0  0  0  0  0  0  0  0  0  0
   -8.0568   -5.4894    0.0000 N   0  0  0  0  0  0  0  0  0  0  0  0
   -6.5608   -5.5985    0.0000 C   0  0  0  0  0  0  0  0  0  0  0  0
   -5.7183   -4.3574    0.0000 C   0  0  0  0  0  0  0  0  0  0  0  0
   -6.3718   -3.0073    0.0000 O   0  0  0  0  0  0  0  0  0  0  0  0
   -5.9072   -6.9486    0.0000 C   0  0  0  0  0  0  0  0  0  0  0  0
   -4.4112   -7.0577    0.0000 C   0  0  0  0  0  0  0  0  0  0  0  0
   -3.7576   -8.4078    0.0000 C   0  0  0  0  0  0  0  0  0  0  0  0
   -4.6001   -9.6489    0.0000 O   0  0  0  0  0  0  0  0  0  0  0  0
   -2.2616   -8.5169    0.0000 O   0  0  0  0  0  0  0  0  0  0  0  0
   -4.2222   -4.4665    0.0000 N   0  0  0  0  0  0  0  0  0  0  0  0
   -3.3798   -3.2254    0.0000 C   0  0  0  0  0  0  0  0  0  0  0  0
   -4.0333   -1.8753    0.0000 C   0  0  0  0  0  0  0  0  0  0  0  0
   -5.5293   -1.7662    0.0000 O   0  0  0  0  0  0  0  0  0  0  0  0
   -1.8837   -3.3345    0.0000 C   0  0  0  0  0  0  0  0  0  0  0  0
   -1.0413   -2.0935    0.0000 C   0  0  0  0  0  0  0  0  0  0  0  0
    0.4548   -2.2025    0.0000 S   0  0  0  0  0  0  0  0  0  0  0  0
    1.2972   -0.9615    0.0000 C   0  0  0  0  0  0  0  0  0  0  0  0
   -3.1908   -0.6342    0.0000 N   0  0  0  0  0  0  0  0  0  0  0  0
   -3.8444    0.7159    0.0000 C   0  0  0  0  0  0  0  0  0  0  0  0
   -3.0019    1.9570    0.0000 C   0  0  0  0  0  0  0  0  0  0  0  0
   -1.5059    1.8479    0.0000 O   0  0  0  0  0  0  0  0  0  0  0  0
   -3.6555    3.3071    0.0000 N   0  0  0  0  0  0  0  0  0  0  0  0
   -2.8130    4.5482    0.0000 C   0  0  0  0  0  0  0  0  0  0  0  0
   -1.3170    4.4391    0.0000 C   0  0  0  0  0  0  0  0  0  0  0  0
   -0.6634    3.0889    0.0000 O   0  0  0  0  0  0  0  0  0  0  0  0
   -3.4665    5.8983    0.0000 C   0  0  0  0  0  0  0  0  0  0  0  0
   -2.6241    7.1394    0.0000 C   0  0  0  0  0  0  0  0  0  0  0  0
   -1.1280    7.0303    0.0000 C   0  0  0  0  0  0  0  0  0  0  0  0
   -3.2776    8.4895    0.0000 C   0  0  0  0  0  0  0  0  0  0  0  0
   -0.2856    8.2713    0.0000 C   0  0  0  0  0  0  0  0  0  0  0  0
   -2.4351    9.7306    0.0000 C   0  0  0  0  0  0  0  0  0  0  0  0
   -0.9391    9.6215    0.0000 C   0  0  0  0  0  0  0  0  0  0  0  0
   -0.0966   10.8625    0.0000 O   0  0  0  0  0  0  0  0  0  0  0  0
   -0.4745    5.6801    0.0000 N   0  0  0  0  0  0  0  0  0  0  0  0
    1.0215    5.5711    0.0000 C   0  0  0  0  0  0  0  0  0  0  0  0
    1.6751    4.2209    0.0000 C   0  0  0  0  0  0  0  0  0  0  0  0
    0.8326    2.9799    0.0000 O   0  0  0  0  0  0  0  0  0  0  0  0
    1.8640    6.8121    0.0000 C   0  0  0  0  0  0  0  0  0  0  0  0
    3.3601    6.7030    0.0000 C   0  0  0  0  0  0  0  0  0  0  0  0
    1.2105    8.1623    0.0000 C   0  0  0  0  0  0  0  0  0  0  0  0
    2.0530    9.4033    0.0000 C   0  0  0  0  0  0  0  0  0  0  0  0
    3.1711    4.1118    0.0000 N   0  0  0  0  0  0  0  0  0  0  0  0
    3.8247    2.7617    0.0000 C   0  0  0  0  0  0  0  0  0  0  0  0
    2.9822    1.5207    0.0000 C   0  0  0  0  0  0  0  0  0  0  0  0
    1.4862    1.6297    0.0000 O   0  0  0  0  0  0  0  0  0  0  0  0
    5.3207    2.6526    0.0000 C   0  0  0  0  0  0  0  0  0  0  0  0
    6.1632    3.8937    0.0000 C   0  0  0  0  0  0  0  0  0  0  0  0
    5.5096    5.2438    0.0000 C   0  0  0  0  0  0  0  0  0  0  0  0
    7.6592    3.7846    0.0000 C   0  0  0  0  0  0  0  0  0  0  0  0
    6.3521    6.4849    0.0000 C   0  0  0  0  0  0  0  0  0  0  0  0
    8.5017    5.0257    0.0000 C   0  0  0  0  0  0  0  0  0  0  0  0
    7.8481    6.3758    0.0000 C   0  0  0  0  0  0  0  0  0  0  0  0
    3.6358    0.1705    0.0000 N   0  0  0  0  0  0  0  0  0  0  0  0
    5.1318    0.0614    0.0000 C   0  0  0  0  0  0  0  0  0  0  0  0
    5.7853   -1.2887    0.0000 C   0  0  0  0  0  0  0  0  0  0  0  0
    7.2814   -1.3978    0.0000 O   0  0  0  0  0  0  0  0  0  0  0  0
    5.9743    1.3025    0.0000 C   0  0  0  0  0  0  0  0  0  0  0  0
    7.4703    1.1934    0.0000 C   0  0  0  0  0  0  0  0  0  0  0  0
    8.1238   -0.1567    0.0000 C   0  0  0  0  0  0  0  0  0  0  0  0
    8.3128    2.4345    0.0000 C   0  0  0  0  0  0  0  0  0  0  0  0
    9.6199   -0.2658    0.0000 C   0  0  0  0  0  0  0  0  0  0  0  0
    9.8088    2.3254    0.0000 C   0  0  0  0  0  0  0  0  0  0  0  0
   10.4623    0.9753    0.0000 C   0  0  0  0  0  0  0  0  0  0  0  0
   11.9584    0.8662    0.0000 O   0  0  0  0  0  0  0  0  0  0  0  0
    4.9429   -2.5298    0.0000 N   0  0  0  0  0  0  0  0  0  0  0  0
    5.4517   -3.9408    0.0000 C   0  0  0  0  0  0  0  0  0  0  0  0
    6.8924   -4.3586    0.0000 C   0  0  0  0  0  0  0  0  0  0  0  0
    7.9745   -3.3198    0.0000 O   0  0  0  0  0  0  0  0  0  0  0  0
    4.2669   -4.8608    0.0000 C   0  0  0  0  0  0  0  0  0  0  0  0
    3.0259   -4.0183    0.0000 C   0  0  0  0  0  0  0  0  0  0  0  0
    3.4436   -2.5777    0.0000 C   0  0  0  0  0  0  0  0  0  0  0  0
    7.2509   -5.8151    0.0000 N   0  0  0  0  0  0  0  0  0  0  0  0
    8.6916   -6.2328    0.0000 C   0  0  0  0  0  0  0  0  0  0  0  0
    9.7737   -5.1940    0.0000 C   0  0  0  0  0  0  0  0  0  0  0  0
    9.4151   -3.7375    0.0000 O   0  0  0  0  0  0  0  0  0  0  0  0
    9.0501   -7.6893    0.0000 C   0  0  0  0  0  0  0  0  0  0  0  0
   10.4908   -8.1070    0.0000 C   0  0  0  0  0  0  0  0  0  0  0  0
   10.8494   -9.5636    0.0000 C   0  0  0  0  0  0  0  0  0  0  0  0
   12.2900   -9.9813    0.0000 N   0  0  0  0  0  0  0  0  0  0  0  0
   12.6486  -11.4378    0.0000 C   0  0  0  0  0  0  0  0  0  0  0  0
   11.5665  -12.4766    0.0000 N   0  0  0  0  0  0  0  0  0  0  0  0
   14.0892  -11.8555    0.0000 N   0  0  0  0  0  0  0  0  0  0  0  0
   11.2143   -5.6118    0.0000 N   0  0  0  0  0  0  0  0  0  0  0  0
   12.2964   -4.5730    0.0000 C   0  0  0  0  0  0  0  0  0  0  0  0
   11.9379   -3.1165    0.0000 C   0  0  0  0  0  0  0  0  0  0  0  0
   10.8583   -2.9422    0.0000 O   0  0  0  0  0  0  0  0  0  0  0  0
   13.7371   -4.9907    0.0000 C   0  0  0  0  0  0  0  0  0  0  0  0
   14.8192   -3.9519    0.0000 C   0  0  0  0  0  0  0  0  0  0  0  0
   16.2598   -4.3697    0.0000 C   0  0  0  0  0  0  0  0  0  0  0  0
   17.3419   -3.3309    0.0000 C   0  0  0  0  0  0  0  0  0  0  0  0
   18.7826   -3.7486    0.0000 N   0  0  0  0  0  0  0  0  0  0  0  0
   13.0200   -2.0777    0.0000 N   0  0  0  0  0  0  0  0  0  0  0  0
   12.6614   -0.6212    0.0000 C   0  0  0  0  0  0  0  0  0  0  0  0
   13.7435    0.4176    0.0000 C   0  0  0  0  0  0  0  0  0  0  0  0
   15.1842   -0.0001    0.0000 O   0  0  0  0  0  0  0  0  0  0  0  0
   11.2208   -0.2034    0.0000 C   0  0  0  0  0  0  0  0  0  0  0  0
   10.1387   -1.2422    0.0000 C   0  0  0  0  0  0  0  0  0  0  0  0
   10.2687   -2.3280    0.0000 C   0  0  0  0  0  0  0  0  0  0  0  0
    8.6980   -0.8245    0.0000 C   0  0  0  0  0  0  0  0  0  0  0  0
   13.3849    1.8741    0.0000 N   0  0  0  0  0  0  0  0  0  0  0  0
   14.4670    2.9129    0.0000 C   0  0  0  0  0  0  0  0  0  0  0  0
   15.9077    2.4952    0.0000 C   0  0  0  0  0  0  0  0  0  0  0  0
   16.2663    1.0387    0.0000 O   0  0  0  0  0  0  0  0  0  0  0  0
   14.1085    4.3694    0.0000 C   0  0  0  0  0  0  0  0  0  0  0  0
   15.1906    5.4082    0.0000 C   0  0  0  0  0  0  0  0  0  0  0  0
   14.8320    6.8647    0.0000 C   0  0  0  0  0  0  0  0  0  0  0  0
   15.9141    7.9035    0.0000 N   0  0  0  0  0  0  0  0  0  0  0  0
   15.5556    9.3600    0.0000 C   0  0  0  0  0  0  0  0  0  0  0  0
   14.1149    9.7777    0.0000 N   0  0  0  0  0  0  0  0  0  0  0  0
   16.6377   10.3988    0.0000 N   0  0  0  0  0  0  0  0  0  0  0  0
   16.9898    3.5340    0.0000 N   0  0  0  0  0  0  0  0  0  0  0  0
  -17.1197    4.2888    0.0000 C   0  0  0  0  0  0  0  0  0  0  0  0
  -18.6158    4.3979    0.0000 O   0  0  0  0  0  0  0  0  0  0  0  0
  -16.2772    5.5298    0.0000 C   0  0  0  0  0  0  0  0  0  0  0  0
  1  2  1  0
  2  3  1  0
  3  4  2  0
  2  5  1  6
  5  6  1  0
  6  7  1  0
  7  8  1  0
  9 10  1  0
 10 11  1  0
 11 12  2  0
 10 13  1  6
 13 14  1  0
 14 15  1  0
 15 16  1  0
 16 17  1  0
 17 18  2  0
 17 19  1  0
  3  9  1  0
 20 21  1  0
 21 22  1  0
 22 23  2  0
 21 24  1  1
 24 25  1  0
 25 26  2  0
 25 27  1  0
 26 28  1  0
 27 29  1  0
 27 30  2  0
 28 29  1  0
 29 31  2  0
 30 32  1  0
 31 33  1  0
 32 33  2  0
 11 20  1  0
 34 35  1  0
 35 36  1  0
 36 37  2  0
 35 38  1  6
 38 39  1  0
 39 40  1  0
 40 41  2  0
 40 42  1  0
 22 34  1  0
 43 44  1  0
 44 45  1  0
 45 46  2  0
 44 47  1  6
 47 48  1  0
 48 49  1  0
 49 50  2  0
 49 51  1  0
 36 43  1  0
 52 53  1  0
 53 54  1  0
 54 55  2  0
 53 56  1  6
 56 57  1  0
 57 58  1  0
 58 59  1  0
 45 52  1  0
 60 61  1  0
 61 62  1  0
 62 63  2  0
 54 60  1  0
 64 65  1  0
 65 66  1  0
 66 67  2  0
 65 68  1  1
 68 69  1  0
 69 70  1  0
 70 72  2  0
 72 74  1  0
 74 73  2  0
 73 71  1  0
 71 69  2  0
 74 75  1  0
 62 64  1  0
 77 76  1  1
 77 78  1  0
 78 79  2  0
 77 80  1  0
 80 81  1  6
 80 82  1  0
 82 83  1  0
 66 76  1  0
 84 85  1  0
 85 86  1  0
 86 87  2  0
 85 88  1  1
 88 89  1  0
 89 90  2  0
 90 92  1  0
 92 94  2  0
 94 93  1  0
 93 91  2  0
 91 89  1  0
 78 84  1  0
 95 96  1  0
 96 97  1  0
 97 98  2  0
 96 99  1  1
 99100  1  0
100101  1  0
101103  2  0
103105  1  0
105104  2  0
104102  1  0
102100  2  0
105106  1  0
 86 95  1  0
107108  1  0
108109  1  6
109110  2  0
108111  1  0
111112  1  0
112113  1  0
113107  1  0
 97107  1  0
114115  1  0
115116  1  0
116117  2  0
115118  1  6
118119  1  0
119120  1  0
120121  1  0
121122  1  0
122123  2  0
122124  1  0
109114  1  0
125126  1  0
126127  1  0
127128  2  0
126129  1  6
129130  1  0
130131  1  0
131132  1  0
132133  1  0
116125  1  0
134135  1  0
135136  1  0
136137  2  0
135138  1  1
138139  1  0
139140  1  0
139141  1  0
127134  1  0
142143  1  0
143144  1  0
144145  2  0
143146  1  1
146147  1  0
147148  1  0
148149  1  0
149150  1  0
150151  2  0
150152  1  0
136142  1  0
144153  1  0
  1154  1  0
154155  2  0
154156  1  0
M  END
>  <evidence_status>  (4)
defined_terminal_comparison_unvalidated

>  <limits>  (4)
Graph identity only; no demonstrated oral improvement

$$$$
MOTS_c_K14Q
     RDKit          2D

153158  0  0  0  0  0  0  0  0999 V2000
  -16.7382    3.3282    0.0000 N   0  0  0  0  0  0  0  0  0  0  0  0
  -17.6015    2.1015    0.0000 C   0  0  0  0  0  0  0  0  0  0  0  0
  -16.9708    0.7405    0.0000 C   0  0  0  0  0  0  0  0  0  0  0  0
  -17.8341   -0.4861    0.0000 O   0  0  0  0  0  0  0  0  0  0  0  0
  -19.0955    2.2358    0.0000 C   0  0  0  0  0  0  0  0  0  0  0  0
  -19.7261    3.5968    0.0000 C   0  0  0  0  0  0  0  0  0  0  0  0
  -21.2201    3.7311    0.0000 S   0  0  0  0  0  0  0  0  0  0  0  0
  -21.8508    5.0921    0.0000 C   0  0  0  0  0  0  0  0  0  0  0  0
  -15.4769    0.6062    0.0000 N   0  0  0  0  0  0  0  0  0  0  0  0
  -14.8462   -0.7548    0.0000 C   0  0  0  0  0  0  0  0  0  0  0  0
  -13.3522   -0.8891    0.0000 C   0  0  0  0  0  0  0  0  0  0  0  0
  -12.7215   -2.2501    0.0000 O   0  0  0  0  0  0  0  0  0  0  0  0
  -15.7095   -1.9814    0.0000 C   0  0  0  0  0  0  0  0  0  0  0  0
  -17.2035   -1.8471    0.0000 C   0  0  0  0  0  0  0  0  0  0  0  0
  -18.0668   -3.0738    0.0000 C   0  0  0  0  0  0  0  0  0  0  0  0
  -19.5607   -2.9395    0.0000 N   0  0  0  0  0  0  0  0  0  0  0  0
  -20.4241   -4.1661    0.0000 C   0  0  0  0  0  0  0  0  0  0  0  0
  -19.7934   -5.5271    0.0000 N   0  0  0  0  0  0  0  0  0  0  0  0
  -21.9180   -4.0318    0.0000 N   0  0  0  0  0  0  0  0  0  0  0  0
  -12.4889    0.3376    0.0000 N   0  0  0  0  0  0  0  0  0  0  0  0
  -10.9949    0.2033    0.0000 C   0  0  0  0  0  0  0  0  0  0  0  0
  -10.3643   -1.1577    0.0000 C   0  0  0  0  0  0  0  0  0  0  0  0
   -8.8703   -1.2920    0.0000 O   0  0  0  0  0  0  0  0  0  0  0  0
  -10.1316    1.4299    0.0000 C   0  0  0  0  0  0  0  0  0  0  0  0
  -10.7623    2.7909    0.0000 C   0  0  0  0  0  0  0  0  0  0  0  0
  -12.2340    3.0806    0.0000 C   0  0  0  0  0  0  0  0  0  0  0  0
  -10.0319    4.1011    0.0000 C   0  0  0  0  0  0  0  0  0  0  0  0
  -12.4133    4.5699    0.0000 N   0  0  0  0  0  0  0  0  0  0  0  0
  -11.0523    5.2006    0.0000 C   0  0  0  0  0  0  0  0  0  0  0  0
   -8.5696    4.4350    0.0000 C   0  0  0  0  0  0  0  0  0  0  0  0
  -10.6103    6.6340    0.0000 C   0  0  0  0  0  0  0  0  0  0  0  0
   -8.1276    5.8684    0.0000 C   0  0  0  0  0  0  0  0  0  0  0  0
   -9.1479    6.9679    0.0000 C   0  0  0  0  0  0  0  0  0  0  0  0
  -11.2276   -2.3844    0.0000 N   0  0  0  0  0  0  0  0  0  0  0  0
  -10.5969   -3.7453    0.0000 C   0  0  0  0  0  0  0  0  0  0  0  0
   -9.1029   -3.8797    0.0000 C   0  0  0  0  0  0  0  0  0  0  0  0
   -8.2396   -2.6530    0.0000 O   0  0  0  0  0  0  0  0  0  0  0  0
  -11.4602   -4.9720    0.0000 C   0  0  0  0  0  0  0  0  0  0  0  0
  -10.8295   -6.3330    0.0000 C   0  0  0  0  0  0  0  0  0  0  0  0
  -11.6928   -7.5597    0.0000 C   0  0  0  0  0  0  0  0  0  0  0  0
  -13.1868   -7.4253    0.0000 O   0  0  0  0  0  0  0  0  0  0  0  0
  -11.0622   -8.9206    0.0000 N   0  0  0  0  0  0  0  0  0  0  0  0
   -8.4723   -5.2406    0.0000 N   0  0  0  0  0  0  0  0  0  0  0  0
   -6.9783   -5.3750    0.0000 C   0  0  0  0  0  0  0  0  0  0  0  0
   -6.1150   -4.1483    0.0000 C   0  0  0  0  0  0  0  0  0  0  0  0
   -6.7456   -2.7873    0.0000 O   0  0  0  0  0  0  0  0  0  0  0  0
   -6.3476   -6.7359    0.0000 C   0  0  0  0  0  0  0  0  0  0  0  0
   -4.8536   -6.8702    0.0000 C   0  0  0  0  0  0  0  0  0  0  0  0
   -4.2230   -8.2312    0.0000 C   0  0  0  0  0  0  0  0  0  0  0  0
   -5.0863   -9.4579    0.0000 O   0  0  0  0  0  0  0  0  0  0  0  0
   -2.7290   -8.3655    0.0000 O   0  0  0  0  0  0  0  0  0  0  0  0
   -4.6210   -4.2826    0.0000 N   0  0  0  0  0  0  0  0  0  0  0  0
   -3.7577   -3.0559    0.0000 C   0  0  0  0  0  0  0  0  0  0  0  0
   -4.3884   -1.6950    0.0000 C   0  0  0  0  0  0  0  0  0  0  0  0
   -5.8823   -1.5607    0.0000 O   0  0  0  0  0  0  0  0  0  0  0  0
   -2.2637   -3.1903    0.0000 C   0  0  0  0  0  0  0  0  0  0  0  0
   -1.4004   -1.9636    0.0000 C   0  0  0  0  0  0  0  0  0  0  0  0
    0.0936   -2.0979    0.0000 S   0  0  0  0  0  0  0  0  0  0  0  0
    0.9569   -0.8712    0.0000 C   0  0  0  0  0  0  0  0  0  0  0  0
   -3.5251   -0.4683    0.0000 N   0  0  0  0  0  0  0  0  0  0  0  0
   -4.1557    0.8927    0.0000 C   0  0  0  0  0  0  0  0  0  0  0  0
   -3.2924    2.1193    0.0000 C   0  0  0  0  0  0  0  0  0  0  0  0
   -1.7984    1.9850    0.0000 O   0  0  0  0  0  0  0  0  0  0  0  0
   -3.9231    3.4803    0.0000 N   0  0  0  0  0  0  0  0  0  0  0  0
   -3.0598    4.7070    0.0000 C   0  0  0  0  0  0  0  0  0  0  0  0
   -1.5658    4.5727    0.0000 C   0  0  0  0  0  0  0  0  0  0  0  0
   -0.9351    3.2117    0.0000 O   0  0  0  0  0  0  0  0  0  0  0  0
   -3.6904    6.0680    0.0000 C   0  0  0  0  0  0  0  0  0  0  0  0
   -2.8271    7.2946    0.0000 C   0  0  0  0  0  0  0  0  0  0  0  0
   -1.3332    7.1603    0.0000 C   0  0  0  0  0  0  0  0  0  0  0  0
   -3.4578    8.6556    0.0000 C   0  0  0  0  0  0  0  0  0  0  0  0
   -0.4699    8.3870    0.0000 C   0  0  0  0  0  0  0  0  0  0  0  0
   -2.5945    9.8823    0.0000 C   0  0  0  0  0  0  0  0  0  0  0  0
   -1.1005    9.7479    0.0000 C   0  0  0  0  0  0  0  0  0  0  0  0
   -0.2372   10.9746    0.0000 O   0  0  0  0  0  0  0  0  0  0  0  0
   -0.7025    5.7993    0.0000 N   0  0  0  0  0  0  0  0  0  0  0  0
    0.7915    5.6650    0.0000 C   0  0  0  0  0  0  0  0  0  0  0  0
    1.4221    4.3040    0.0000 C   0  0  0  0  0  0  0  0  0  0  0  0
    0.5588    3.0774    0.0000 O   0  0  0  0  0  0  0  0  0  0  0  0
    1.6548    6.8917    0.0000 C   0  0  0  0  0  0  0  0  0  0  0  0
    3.1488    6.7574    0.0000 C   0  0  0  0  0  0  0  0  0  0  0  0
    1.0241    8.2526    0.0000 C   0  0  0  0  0  0  0  0  0  0  0  0
    1.8874    9.4793    0.0000 C   0  0  0  0  0  0  0  0  0  0  0  0
    2.9161    4.1697    0.0000 N   0  0  0  0  0  0  0  0  0  0  0  0
    3.5468    2.8087    0.0000 C   0  0  0  0  0  0  0  0  0  0  0  0
    2.6835    1.5821    0.0000 C   0  0  0  0  0  0  0  0  0  0  0  0
    1.1895    1.7164    0.0000 O   0  0  0  0  0  0  0  0  0  0  0  0
    5.0408    2.6744    0.0000 C   0  0  0  0  0  0  0  0  0  0  0  0
    5.9041    3.9011    0.0000 C   0  0  0  0  0  0  0  0  0  0  0  0
    5.2734    5.2621    0.0000 C   0  0  0  0  0  0  0  0  0  0  0  0
    7.3980    3.7668    0.0000 C   0  0  0  0  0  0  0  0  0  0  0  0
    6.1367    6.4887    0.0000 C   0  0  0  0  0  0  0  0  0  0  0  0
    8.2614    4.9934    0.0000 C   0  0  0  0  0  0  0  0  0  0  0  0
    7.6307    6.3544    0.0000 C   0  0  0  0  0  0  0  0  0  0  0  0
    3.3141    0.2211    0.0000 N   0  0  0  0  0  0  0  0  0  0  0  0
    4.8081    0.0868    0.0000 C   0  0  0  0  0  0  0  0  0  0  0  0
    5.4388   -1.2742    0.0000 C   0  0  0  0  0  0  0  0  0  0  0  0
    6.9328   -1.4085    0.0000 O   0  0  0  0  0  0  0  0  0  0  0  0
    5.6714    1.3134    0.0000 C   0  0  0  0  0  0  0  0  0  0  0  0
    7.1654    1.1791    0.0000 C   0  0  0  0  0  0  0  0  0  0  0  0
    7.7961   -0.1818    0.0000 C   0  0  0  0  0  0  0  0  0  0  0  0
    8.0287    2.4058    0.0000 C   0  0  0  0  0  0  0  0  0  0  0  0
    9.2900   -0.3162    0.0000 C   0  0  0  0  0  0  0  0  0  0  0  0
    9.5227    2.2715    0.0000 C   0  0  0  0  0  0  0  0  0  0  0  0
   10.1534    0.9105    0.0000 C   0  0  0  0  0  0  0  0  0  0  0  0
   11.6473    0.7762    0.0000 O   0  0  0  0  0  0  0  0  0  0  0  0
    4.5755   -2.5009    0.0000 N   0  0  0  0  0  0  0  0  0  0  0  0
    5.0604   -3.9203    0.0000 C   0  0  0  0  0  0  0  0  0  0  0  0
    6.4938   -4.3623    0.0000 C   0  0  0  0  0  0  0  0  0  0  0  0
    7.5933   -3.3419    0.0000 O   0  0  0  0  0  0  0  0  0  0  0  0
    3.8603   -4.8201    0.0000 C   0  0  0  0  0  0  0  0  0  0  0  0
    2.6337   -3.9568    0.0000 C   0  0  0  0  0  0  0  0  0  0  0  0
    3.0757   -2.5234    0.0000 C   0  0  0  0  0  0  0  0  0  0  0  0
    6.8278   -5.8247    0.0000 N   0  0  0  0  0  0  0  0  0  0  0  0
    8.2612   -6.2666    0.0000 C   0  0  0  0  0  0  0  0  0  0  0  0
    9.3606   -5.2463    0.0000 C   0  0  0  0  0  0  0  0  0  0  0  0
    9.0267   -3.7839    0.0000 O   0  0  0  0  0  0  0  0  0  0  0  0
    8.5951   -7.7290    0.0000 C   0  0  0  0  0  0  0  0  0  0  0  0
   10.0285   -8.1710    0.0000 C   0  0  0  0  0  0  0  0  0  0  0  0
   10.3624   -9.6334    0.0000 C   0  0  0  0  0  0  0  0  0  0  0  0
   11.7958  -10.0754    0.0000 N   0  0  0  0  0  0  0  0  0  0  0  0
   12.1297  -11.5377    0.0000 C   0  0  0  0  0  0  0  0  0  0  0  0
   11.0303  -12.5581    0.0000 N   0  0  0  0  0  0  0  0  0  0  0  0
   13.5631  -11.9797    0.0000 N   0  0  0  0  0  0  0  0  0  0  0  0
   10.7940   -5.6883    0.0000 N   0  0  0  0  0  0  0  0  0  0  0  0
   11.8935   -4.6679    0.0000 C   0  0  0  0  0  0  0  0  0  0  0  0
   11.5596   -3.2056    0.0000 C   0  0  0  0  0  0  0  0  0  0  0  0
   10.4832   -3.0131    0.0000 O   0  0  0  0  0  0  0  0  0  0  0  0
   13.3269   -5.1099    0.0000 C   0  0  0  0  0  0  0  0  0  0  0  0
   14.4264   -4.0895    0.0000 C   0  0  0  0  0  0  0  0  0  0  0  0
   15.8598   -4.5315    0.0000 C   0  0  0  0  0  0  0  0  0  0  0  0
   16.1937   -5.9939    0.0000 O   0  0  0  0  0  0  0  0  0  0  0  0
   16.9593   -3.5112    0.0000 N   0  0  0  0  0  0  0  0  0  0  0  0
   12.6591   -2.1852    0.0000 N   0  0  0  0  0  0  0  0  0  0  0  0
   12.3252   -0.7228    0.0000 C   0  0  0  0  0  0  0  0  0  0  0  0
   13.4246    0.2975    0.0000 C   0  0  0  0  0  0  0  0  0  0  0  0
   14.8580   -0.1445    0.0000 O   0  0  0  0  0  0  0  0  0  0  0  0
   10.8918   -0.2808    0.0000 C   0  0  0  0  0  0  0  0  0  0  0  0
    9.7923   -1.3012    0.0000 C   0  0  0  0  0  0  0  0  0  0  0  0
    9.9039   -2.3890    0.0000 C   0  0  0  0  0  0  0  0  0  0  0  0
    8.3589   -0.8592    0.0000 C   0  0  0  0  0  0  0  0  0  0  0  0
   13.0907    1.7599    0.0000 N   0  0  0  0  0  0  0  0  0  0  0  0
   14.1902    2.7803    0.0000 C   0  0  0  0  0  0  0  0  0  0  0  0
   15.6236    2.3383    0.0000 C   0  0  0  0  0  0  0  0  0  0  0  0
   15.9575    0.8759    0.0000 O   0  0  0  0  0  0  0  0  0  0  0  0
   13.8563    4.2426    0.0000 C   0  0  0  0  0  0  0  0  0  0  0  0
   14.9557    5.2630    0.0000 C   0  0  0  0  0  0  0  0  0  0  0  0
   14.6218    6.7253    0.0000 C   0  0  0  0  0  0  0  0  0  0  0  0
   15.7213    7.7457    0.0000 N   0  0  0  0  0  0  0  0  0  0  0  0
   15.3874    9.2081    0.0000 C   0  0  0  0  0  0  0  0  0  0  0  0
   13.9540    9.6501    0.0000 N   0  0  0  0  0  0  0  0  0  0  0  0
   16.4869   10.2284    0.0000 N   0  0  0  0  0  0  0  0  0  0  0  0
   16.7231    3.3586    0.0000 O   0  0  0  0  0  0  0  0  0  0  0  0
  2  1  1  6
  2  3  1  0
  3  4  2  0
  2  5  1  0
  5  6  1  0
  6  7  1  0
  7  8  1  0
  9 10  1  0
 10 11  1  0
 11 12  2  0
 10 13  1  6
 13 14  1  0
 14 15  1  0
 15 16  1  0
 16 17  1  0
 17 18  2  0
 17 19  1  0
  3  9  1  0
 20 21  1  0
 21 22  1  0
 22 23  2  0
 21 24  1  1
 24 25  1  0
 25 26  2  0
 25 27  1  0
 26 28  1  0
 27 29  1  0
 27 30  2  0
 28 29  1  0
 29 31  2  0
 30 32  1  0
 31 33  1  0
 32 33  2  0
 11 20  1  0
 34 35  1  0
 35 36  1  0
 36 37  2  0
 35 38  1  6
 38 39  1  0
 39 40  1  0
 40 41  2  0
 40 42  1  0
 22 34  1  0
 43 44  1  0
 44 45  1  0
 45 46  2  0
 44 47  1  6
 47 48  1  0
 48 49  1  0
 49 50  2  0
 49 51  1  0
 36 43  1  0
 52 53  1  0
 53 54  1  0
 54 55  2  0
 53 56  1  6
 56 57  1  0
 57 58  1  0
 58 59  1  0
 45 52  1  0
 60 61  1  0
 61 62  1  0
 62 63  2  0
 54 60  1  0
 64 65  1  0
 65 66  1  0
 66 67  2  0
 65 68  1  1
 68 69  1  0
 69 70  1  0
 70 72  2  0
 72 74  1  0
 74 73  2  0
 73 71  1  0
 71 69  2  0
 74 75  1  0
 62 64  1  0
 77 76  1  1
 77 78  1  0
 78 79  2  0
 77 80  1  0
 80 81  1  6
 80 82  1  0
 82 83  1  0
 66 76  1  0
 84 85  1  0
 85 86  1  0
 86 87  2  0
 85 88  1  1
 88 89  1  0
 89 90  2  0
 90 92  1  0
 92 94  2  0
 94 93  1  0
 93 91  2  0
 91 89  1  0
 78 84  1  0
 95 96  1  0
 96 97  1  0
 97 98  2  0
 96 99  1  1
 99100  1  0
100101  1  0
101103  2  0
103105  1  0
105104  2  0
104102  1  0
102100  2  0
105106  1  0
 86 95  1  0
107108  1  0
108109  1  6
109110  2  0
108111  1  0
111112  1  0
112113  1  0
113107  1  0
 97107  1  0
114115  1  0
115116  1  0
116117  2  0
115118  1  6
118119  1  0
119120  1  0
120121  1  0
121122  1  0
122123  2  0
122124  1  0
109114  1  0
125126  1  0
126127  1  0
127128  2  0
126129  1  6
129130  1  0
130131  1  0
131132  2  0
131133  1  0
116125  1  0
134135  1  0
135136  1  0
136137  2  0
135138  1  1
138139  1  0
139140  1  0
139141  1  0
127134  1  0
142143  1  0
143144  1  0
144145  2  0
143146  1  1
146147  1  0
147148  1  0
148149  1  0
149150  1  0
150151  2  0
150152  1  0
136142  1  0
144153  1  0
M  END
>  <evidence_status>  (5)
published_sequence_variant_defined_free_acid_graph

>  <limits>  (5)
Graph identity only; no demonstrated oral improvement

$$$$
Epitalon
     RDKit          2D

 27 26  0  0  0  0  0  0  0  0999 V2000
    5.2554    3.6887    0.0000 N   0  0  0  0  0  0  0  0  0  0  0  0
    3.7580    3.7775    0.0000 C   0  0  0  0  0  0  0  0  0  0  0  0
    2.9324    2.5251    0.0000 C   0  0  0  0  0  0  0  0  0  0  0  0
    1.4350    2.6139    0.0000 O   0  0  0  0  0  0  0  0  0  0  0  0
    3.0862    5.1187    0.0000 C   0  0  0  0  0  0  0  0  0  0  0  0
    3.6042    1.1840    0.0000 N   0  0  0  0  0  0  0  0  0  0  0  0
    2.7786   -0.0684    0.0000 C   0  0  0  0  0  0  0  0  0  0  0  0
    1.2812    0.0204    0.0000 C   0  0  0  0  0  0  0  0  0  0  0  0
    0.6095    1.3616    0.0000 O   0  0  0  0  0  0  0  0  0  0  0  0
    3.4504   -1.4095    0.0000 C   0  0  0  0  0  0  0  0  0  0  0  0
    2.6248   -2.6619    0.0000 C   0  0  0  0  0  0  0  0  0  0  0  0
    3.2966   -4.0031    0.0000 C   0  0  0  0  0  0  0  0  0  0  0  0
    4.7939   -4.0919    0.0000 O   0  0  0  0  0  0  0  0  0  0  0  0
    2.4710   -5.2554    0.0000 O   0  0  0  0  0  0  0  0  0  0  0  0
    0.4556   -1.2319    0.0000 N   0  0  0  0  0  0  0  0  0  0  0  0
   -1.0417   -1.1431    0.0000 C   0  0  0  0  0  0  0  0  0  0  0  0
   -1.7135    0.1980    0.0000 C   0  0  0  0  0  0  0  0  0  0  0  0
   -0.8879    1.4504    0.0000 O   0  0  0  0  0  0  0  0  0  0  0  0
   -1.8673   -2.3955    0.0000 C   0  0  0  0  0  0  0  0  0  0  0  0
   -3.3647   -2.3067    0.0000 C   0  0  0  0  0  0  0  0  0  0  0  0
   -4.0365   -0.9655    0.0000 O   0  0  0  0  0  0  0  0  0  0  0  0
   -4.1903   -3.5591    0.0000 O   0  0  0  0  0  0  0  0  0  0  0  0
   -3.2109    0.2868    0.0000 N   0  0  0  0  0  0  0  0  0  0  0  0
   -3.8827    1.6280    0.0000 C   0  0  0  0  0  0  0  0  0  0  0  0
   -5.3800    1.7168    0.0000 C   0  0  0  0  0  0  0  0  0  0  0  0
   -6.2056    0.4644    0.0000 O   0  0  0  0  0  0  0  0  0  0  0  0
   -6.0518    3.0579    0.0000 O   0  0  0  0  0  0  0  0  0  0  0  0
  1  2  1  0
  2  3  1  0
  3  4  2  0
  2  5  1  6
  6  7  1  0
  7  8  1  0
  8  9  2  0
  7 10  1  1
 10 11  1  0
 11 12  1  0
 12 13  2  0
 12 14  1  0
  3  6  1  0
 15 16  1  0
 16 17  1  0
 17 18  2  0
 16 19  1  1
 19 20  1  0
 20 21  2  0
 20 22  1  0
  8 15  1  0
 23 24  1  0
 24 25  1  0
 25 26  2  0
 17 23  1  0
 25 27  1  0
M  END
>  <evidence_status>  (6)
published_parent_identity_reference

>  <limits>  (6)
Graph identity only; no demonstrated oral improvement

$$$$
N_acetyl_Epitalon
     RDKit          2D

 30 29  0  0  0  0  0  0  0  0999 V2000
    5.0703    2.8398    0.0000 N   0  0  0  0  0  0  0  0  0  0  0  0
    3.5987    3.1300    0.0000 C   0  0  0  0  0  0  0  0  0  0  0  0
    2.6115    2.0007    0.0000 C   0  0  0  0  0  0  0  0  0  0  0  0
    1.1398    2.2909    0.0000 O   0  0  0  0  0  0  0  0  0  0  0  0
    3.1142    4.5496    0.0000 C   0  0  0  0  0  0  0  0  0  0  0  0
    3.0959    0.5810    0.0000 N   0  0  0  0  0  0  0  0  0  0  0  0
    2.1088   -0.5483    0.0000 C   0  0  0  0  0  0  0  0  0  0  0  0
    0.6371   -0.2581    0.0000 C   0  0  0  0  0  0  0  0  0  0  0  0
    0.1526    1.1616    0.0000 O   0  0  0  0  0  0  0  0  0  0  0  0
    2.5932   -1.9679    0.0000 C   0  0  0  0  0  0  0  0  0  0  0  0
    1.6060   -3.0973    0.0000 C   0  0  0  0  0  0  0  0  0  0  0  0
    2.0905   -4.5169    0.0000 C   0  0  0  0  0  0  0  0  0  0  0  0
    3.5621   -4.8072    0.0000 O   0  0  0  0  0  0  0  0  0  0  0  0
    1.1033   -5.6463    0.0000 O   0  0  0  0  0  0  0  0  0  0  0  0
   -0.3501   -1.3874    0.0000 N   0  0  0  0  0  0  0  0  0  0  0  0
   -1.8217   -1.0972    0.0000 C   0  0  0  0  0  0  0  0  0  0  0  0
   -2.3062    0.3224    0.0000 C   0  0  0  0  0  0  0  0  0  0  0  0
   -1.3190    1.4518    0.0000 O   0  0  0  0  0  0  0  0  0  0  0  0
   -2.8089   -2.2265    0.0000 C   0  0  0  0  0  0  0  0  0  0  0  0
   -4.2806   -1.9363    0.0000 C   0  0  0  0  0  0  0  0  0  0  0  0
   -4.7650   -0.5167    0.0000 O   0  0  0  0  0  0  0  0  0  0  0  0
   -5.2678   -3.0656    0.0000 O   0  0  0  0  0  0  0  0  0  0  0  0
   -3.7778    0.6127    0.0000 N   0  0  0  0  0  0  0  0  0  0  0  0
   -4.2623    2.0323    0.0000 C   0  0  0  0  0  0  0  0  0  0  0  0
   -5.7340    2.3226    0.0000 C   0  0  0  0  0  0  0  0  0  0  0  0
   -6.7211    1.1932    0.0000 O   0  0  0  0  0  0  0  0  0  0  0  0
   -6.2184    3.7422    0.0000 O   0  0  0  0  0  0  0  0  0  0  0  0
    5.5548    1.4201    0.0000 C   0  0  0  0  0  0  0  0  0  0  0  0
    4.5676    0.2908    0.0000 O   0  0  0  0  0  0  0  0  0  0  0  0
    7.0264    1.1299    0.0000 C   0  0  0  0  0  0  0  0  0  0  0  0
  1  2  1  0
  2  3  1  0
  3  4  2  0
  2  5  1  6
  6  7  1  0
  7  8  1  0
  8  9  2  0
  7 10  1  1
 10 11  1  0
 11 12  1  0
 12 13  2  0
 12 14  1  0
  3  6  1  0
 15 16  1  0
 16 17  1  0
 17 18  2  0
 16 19  1  1
 19 20  1  0
 20 21  2  0
 20 22  1  0
  8 15  1  0
 23 24  1  0
 24 25  1  0
 25 26  2  0
 17 23  1  0
 25 27  1  0
  1 28  1  0
 28 29  2  0
 28 30  1  0
M  END
>  <evidence_status>  (7)
public_identity_reference_biological_improvement_unvalidated

>  <limits>  (7)
Graph identity only; no demonstrated oral improvement

$$$$
Epitalon_C_amide
     RDKit          2D

 27 26  0  0  0  0  0  0  0  0999 V2000
    5.2554    3.6887    0.0000 N   0  0  0  0  0  0  0  0  0  0  0  0
    3.7580    3.7775    0.0000 C   0  0  0  0  0  0  0  0  0  0  0  0
    2.9324    2.5251    0.0000 C   0  0  0  0  0  0  0  0  0  0  0  0
    1.4350    2.6139    0.0000 O   0  0  0  0  0  0  0  0  0  0  0  0
    3.0862    5.1187    0.0000 C   0  0  0  0  0  0  0  0  0  0  0  0
    3.6042    1.1840    0.0000 N   0  0  0  0  0  0  0  0  0  0  0  0
    2.7786   -0.0684    0.0000 C   0  0  0  0  0  0  0  0  0  0  0  0
    1.2812    0.0204    0.0000 C   0  0  0  0  0  0  0  0  0  0  0  0
    0.6095    1.3616    0.0000 O   0  0  0  0  0  0  0  0  0  0  0  0
    3.4504   -1.4095    0.0000 C   0  0  0  0  0  0  0  0  0  0  0  0
    2.6248   -2.6619    0.0000 C   0  0  0  0  0  0  0  0  0  0  0  0
    3.2966   -4.0031    0.0000 C   0  0  0  0  0  0  0  0  0  0  0  0
    4.7939   -4.0919    0.0000 O   0  0  0  0  0  0  0  0  0  0  0  0
    2.4710   -5.2554    0.0000 O   0  0  0  0  0  0  0  0  0  0  0  0
    0.4556   -1.2319    0.0000 N   0  0  0  0  0  0  0  0  0  0  0  0
   -1.0417   -1.1431    0.0000 C   0  0  0  0  0  0  0  0  0  0  0  0
   -1.7135    0.1980    0.0000 C   0  0  0  0  0  0  0  0  0  0  0  0
   -0.8879    1.4504    0.0000 O   0  0  0  0  0  0  0  0  0  0  0  0
   -1.8673   -2.3955    0.0000 C   0  0  0  0  0  0  0  0  0  0  0  0
   -3.3647   -2.3067    0.0000 C   0  0  0  0  0  0  0  0  0  0  0  0
   -4.0365   -0.9655    0.0000 O   0  0  0  0  0  0  0  0  0  0  0  0
   -4.1903   -3.5591    0.0000 O   0  0  0  0  0  0  0  0  0  0  0  0
   -3.2109    0.2868    0.0000 N   0  0  0  0  0  0  0  0  0  0  0  0
   -3.8827    1.6280    0.0000 C   0  0  0  0  0  0  0  0  0  0  0  0
   -5.3800    1.7168    0.0000 C   0  0  0  0  0  0  0  0  0  0  0  0
   -6.2056    0.4644    0.0000 O   0  0  0  0  0  0  0  0  0  0  0  0
   -6.0518    3.0579    0.0000 N   0  0  0  0  0  0  0  0  0  0  0  0
  1  2  1  0
  2  3  1  0
  3  4  2  0
  2  5  1  6
  6  7  1  0
  7  8  1  0
  8  9  2  0
  7 10  1  1
 10 11  1  0
 11 12  1  0
 12 13  2  0
 12 14  1  0
  3  6  1  0
 15 16  1  0
 16 17  1  0
 17 18  2  0
 16 19  1  1
 19 20  1  0
 20 21  2  0
 20 22  1  0
  8 15  1  0
 23 24  1  0
 24 25  1  0
 25 26  2  0
 17 23  1  0
 25 27  1  0
M  END
>  <evidence_status>  (8)
defined_terminal_comparison_unvalidated

>  <limits>  (8)
Graph identity only; no demonstrated oral improvement

$$$$
Epitalon_both_caps
     RDKit          2D

 30 29  0  0  0  0  0  0  0  0999 V2000
    5.0703    2.8398    0.0000 N   0  0  0  0  0  0  0  0  0  0  0  0
    3.5987    3.1300    0.0000 C   0  0  0  0  0  0  0  0  0  0  0  0
    2.6115    2.0007    0.0000 C   0  0  0  0  0  0  0  0  0  0  0  0
    1.1398    2.2909    0.0000 O   0  0  0  0  0  0  0  0  0  0  0  0
    3.1142    4.5496    0.0000 C   0  0  0  0  0  0  0  0  0  0  0  0
    3.0959    0.5810    0.0000 N   0  0  0  0  0  0  0  0  0  0  0  0
    2.1088   -0.5483    0.0000 C   0  0  0  0  0  0  0  0  0  0  0  0
    0.6371   -0.2581    0.0000 C   0  0  0  0  0  0  0  0  0  0  0  0
    0.1526    1.1616    0.0000 O   0  0  0  0  0  0  0  0  0  0  0  0
    2.5932   -1.9679    0.0000 C   0  0  0  0  0  0  0  0  0  0  0  0
    1.6060   -3.0973    0.0000 C   0  0  0  0  0  0  0  0  0  0  0  0
    2.0905   -4.5169    0.0000 C   0  0  0  0  0  0  0  0  0  0  0  0
    3.5621   -4.8072    0.0000 O   0  0  0  0  0  0  0  0  0  0  0  0
    1.1033   -5.6463    0.0000 O   0  0  0  0  0  0  0  0  0  0  0  0
   -0.3501   -1.3874    0.0000 N   0  0  0  0  0  0  0  0  0  0  0  0
   -1.8217   -1.0972    0.0000 C   0  0  0  0  0  0  0  0  0  0  0  0
   -2.3062    0.3224    0.0000 C   0  0  0  0  0  0  0  0  0  0  0  0
   -1.3190    1.4518    0.0000 O   0  0  0  0  0  0  0  0  0  0  0  0
   -2.8089   -2.2265    0.0000 C   0  0  0  0  0  0  0  0  0  0  0  0
   -4.2806   -1.9363    0.0000 C   0  0  0  0  0  0  0  0  0  0  0  0
   -4.7650   -0.5167    0.0000 O   0  0  0  0  0  0  0  0  0  0  0  0
   -5.2678   -3.0656    0.0000 O   0  0  0  0  0  0  0  0  0  0  0  0
   -3.7778    0.6127    0.0000 N   0  0  0  0  0  0  0  0  0  0  0  0
   -4.2623    2.0323    0.0000 C   0  0  0  0  0  0  0  0  0  0  0  0
   -5.7340    2.3226    0.0000 C   0  0  0  0  0  0  0  0  0  0  0  0
   -6.7211    1.1932    0.0000 O   0  0  0  0  0  0  0  0  0  0  0  0
   -6.2184    3.7422    0.0000 N   0  0  0  0  0  0  0  0  0  0  0  0
    5.5548    1.4201    0.0000 C   0  0  0  0  0  0  0  0  0  0  0  0
    4.5676    0.2908    0.0000 O   0  0  0  0  0  0  0  0  0  0  0  0
    7.0264    1.1299    0.0000 C   0  0  0  0  0  0  0  0  0  0  0  0
  1  2  1  0
  2  3  1  0
  3  4  2  0
  2  5  1  6
  6  7  1  0
  7  8  1  0
  8  9  2  0
  7 10  1  1
 10 11  1  0
 11 12  1  0
 12 13  2  0
 12 14  1  0
  3  6  1  0
 15 16  1  0
 16 17  1  0
 17 18  2  0
 16 19  1  1
 19 20  1  0
 20 21  2  0
 20 22  1  0
  8 15  1  0
 23 24  1  0
 24 25  1  0
 25 26  2  0
 17 23  1  0
 25 27  1  0
  1 28  1  0
 28 29  2  0
 28 30  1  0
M  END
>  <evidence_status>  (9)
defined_terminal_comparison_unvalidated

>  <limits>  (9)
Graph identity only; no demonstrated oral improvement

$$$$
