SLU_PP_915
     RDKit          2D

 24 26  0  0  0  0  0  0  0  0999 V2000
   -6.5276   -2.9114    0.0000 O   0  0  0  0  0  0  0  0  0  0  0  0
   -5.1060   -2.4330    0.0000 B   0  0  0  0  0  0  0  0  0  0  0  0
   -3.9808   -3.4250    0.0000 O   0  0  0  0  0  0  0  0  0  0  0  0
   -4.8094   -0.9626    0.0000 C   0  0  0  0  0  0  0  0  0  0  0  0
   -5.9346    0.0294    0.0000 C   0  0  0  0  0  0  0  0  0  0  0  0
   -5.6380    1.4998    0.0000 C   0  0  0  0  0  0  0  0  0  0  0  0
   -4.2164    1.9782    0.0000 C   0  0  0  0  0  0  0  0  0  0  0  0
   -3.0912    0.9862    0.0000 C   0  0  0  0  0  0  0  0  0  0  0  0
   -1.6696    1.4646    0.0000 C   0  0  0  0  0  0  0  0  0  0  0  0
   -1.2210    2.8959    0.0000 C   0  0  0  0  0  0  0  0  0  0  0  0
    0.2789    2.9116    0.0000 C   0  0  0  0  0  0  0  0  0  0  0  0
    0.7573    1.4899    0.0000 C   0  0  0  0  0  0  0  0  0  0  0  0
    2.1887    1.0413    0.0000 C   0  0  0  0  0  0  0  0  0  0  0  0
    3.2929    2.0566    0.0000 O   0  0  0  0  0  0  0  0  0  0  0  0
    2.5159   -0.4225    0.0000 N   0  0  0  0  0  0  0  0  0  0  0  0
    3.9472   -0.8711    0.0000 C   0  0  0  0  0  0  0  0  0  0  0  0
    4.2744   -2.3350    0.0000 C   0  0  0  0  0  0  0  0  0  0  0  0
    5.7057   -2.7836    0.0000 C   0  0  0  0  0  0  0  0  0  0  0  0
    6.8099   -1.7684    0.0000 C   0  0  0  0  0  0  0  0  0  0  0  0
    6.4827   -0.3045    0.0000 C   0  0  0  0  0  0  0  0  0  0  0  0
    5.0514    0.1441    0.0000 C   0  0  0  0  0  0  0  0  0  0  0  0
    4.7242    1.6080    0.0000 F   0  0  0  0  0  0  0  0  0  0  0  0
   -0.4469    0.5956    0.0000 S   0  0  0  0  0  0  0  0  0  0  0  0
   -3.3878   -0.4842    0.0000 C   0  0  0  0  0  0  0  0  0  0  0  0
  1  2  1  0
  2  3  1  0
  2  4  1  0
  4  5  1  0
  5  6  2  0
  6  7  1  0
  7  8  2  0
  8  9  1  0
  9 10  2  0
 10 11  1  0
 11 12  2  0
 12 13  1  0
 13 14  2  0
 13 15  1  0
 15 16  1  0
 16 17  2  0
 17 18  1  0
 18 19  2  0
 19 20  1  0
 20 21  2  0
 21 22  1  0
 12 23  1  0
  8 24  1  0
 24  4  2  0
 23  9  1  0
 21 16  1  0
M  END
>  <evidence_status>  (1)
published_parent_10s

>  <limits>  (1)
Graph definition only; no oral improvement or human-use validation

$$$$
published_10q
     RDKit          2D

 24 26  0  0  0  0  0  0  0  0999 V2000
   -6.6317   -2.9089    0.0000 O   0  0  0  0  0  0  0  0  0  0  0  0
   -5.2126   -2.4230    0.0000 B   0  0  0  0  0  0  0  0  0  0  0  0
   -4.0822   -3.4091    0.0000 O   0  0  0  0  0  0  0  0  0  0  0  0
   -4.9238   -0.9511    0.0000 C   0  0  0  0  0  0  0  0  0  0  0  0
   -6.0541    0.0350    0.0000 C   0  0  0  0  0  0  0  0  0  0  0  0
   -5.7653    1.5069    0.0000 C   0  0  0  0  0  0  0  0  0  0  0  0
   -4.3462    1.9928    0.0000 C   0  0  0  0  0  0  0  0  0  0  0  0
   -3.2159    1.0067    0.0000 C   0  0  0  0  0  0  0  0  0  0  0  0
   -1.7967    1.4926    0.0000 C   0  0  0  0  0  0  0  0  0  0  0  0
   -1.3556    2.9262    0.0000 C   0  0  0  0  0  0  0  0  0  0  0  0
    0.1442    2.9498    0.0000 C   0  0  0  0  0  0  0  0  0  0  0  0
    0.6300    1.5307    0.0000 C   0  0  0  0  0  0  0  0  0  0  0  0
    2.0637    1.0896    0.0000 C   0  0  0  0  0  0  0  0  0  0  0  0
    3.1625    2.1107    0.0000 O   0  0  0  0  0  0  0  0  0  0  0  0
    2.3986   -0.3726    0.0000 N   0  0  0  0  0  0  0  0  0  0  0  0
    3.8323   -0.8136    0.0000 C   0  0  0  0  0  0  0  0  0  0  0  0
    4.1671   -2.2758    0.0000 C   0  0  0  0  0  0  0  0  0  0  0  0
    5.6008   -2.7169    0.0000 C   0  0  0  0  0  0  0  0  0  0  0  0
    6.6996   -1.6958    0.0000 C   0  0  0  0  0  0  0  0  0  0  0  0
    6.3648   -0.2336    0.0000 C   0  0  0  0  0  0  0  0  0  0  0  0
    7.4636    0.7874    0.0000 F   0  0  0  0  0  0  0  0  0  0  0  0
    4.9311    0.2074    0.0000 C   0  0  0  0  0  0  0  0  0  0  0  0
   -0.5695    0.6300    0.0000 S   0  0  0  0  0  0  0  0  0  0  0  0
   -3.5046   -0.4652    0.0000 C   0  0  0  0  0  0  0  0  0  0  0  0
  1  2  1  0
  2  3  1  0
  2  4  1  0
  4  5  1  0
  5  6  2  0
  6  7  1  0
  7  8  2  0
  8  9  1  0
  9 10  2  0
 10 11  1  0
 11 12  2  0
 12 13  1  0
 13 14  2  0
 13 15  1  0
 15 16  1  0
 16 17  2  0
 17 18  1  0
 18 19  2  0
 19 20  1  0
 20 21  1  0
 20 22  2  0
 12 23  1  0
  8 24  1  0
 24  4  2  0
 23  9  1  0
 22 16  1  0
M  END
>  <evidence_status>  (2)
published_ERR_comparator

>  <limits>  (2)
Graph definition only; no oral improvement or human-use validation

$$$$
published_10r
     RDKit          2D

 24 26  0  0  0  0  0  0  0  0999 V2000
   -8.2746   -0.2236    0.0000 O   0  0  0  0  0  0  0  0  0  0  0  0
   -7.0900   -1.1438    0.0000 B   0  0  0  0  0  0  0  0  0  0  0  0
   -7.2945   -2.6298    0.0000 O   0  0  0  0  0  0  0  0  0  0  0  0
   -5.7008   -0.5780    0.0000 C   0  0  0  0  0  0  0  0  0  0  0  0
   -5.4962    0.9080    0.0000 C   0  0  0  0  0  0  0  0  0  0  0  0
   -4.1070    1.4738    0.0000 C   0  0  0  0  0  0  0  0  0  0  0  0
   -2.9224    0.5537    0.0000 C   0  0  0  0  0  0  0  0  0  0  0  0
   -1.5332    1.1195    0.0000 C   0  0  0  0  0  0  0  0  0  0  0  0
   -1.1745    2.5760    0.0000 C   0  0  0  0  0  0  0  0  0  0  0  0
    0.3216    2.6848    0.0000 C   0  0  0  0  0  0  0  0  0  0  0  0
    0.8874    1.2956    0.0000 C   0  0  0  0  0  0  0  0  0  0  0  0
    2.3439    0.9369    0.0000 C   0  0  0  0  0  0  0  0  0  0  0  0
    3.3828    2.0188    0.0000 O   0  0  0  0  0  0  0  0  0  0  0  0
    2.7614   -0.5039    0.0000 N   0  0  0  0  0  0  0  0  0  0  0  0
    4.2179   -0.8626    0.0000 C   0  0  0  0  0  0  0  0  0  0  0  0
    4.6354   -2.3033    0.0000 C   0  0  0  0  0  0  0  0  0  0  0  0
    6.0918   -2.6621    0.0000 C   0  0  0  0  0  0  0  0  0  0  0  0
    7.1308   -1.5802    0.0000 C   0  0  0  0  0  0  0  0  0  0  0  0
    6.7133   -0.1395    0.0000 C   0  0  0  0  0  0  0  0  0  0  0  0
    7.7522    0.9425    0.0000 F   0  0  0  0  0  0  0  0  0  0  0  0
    5.2568    0.2193    0.0000 C   0  0  0  0  0  0  0  0  0  0  0  0
   -0.2589    0.3282    0.0000 S   0  0  0  0  0  0  0  0  0  0  0  0
   -3.1270   -0.9323    0.0000 C   0  0  0  0  0  0  0  0  0  0  0  0
   -4.5162   -1.4981    0.0000 C   0  0  0  0  0  0  0  0  0  0  0  0
  1  2  1  0
  2  3  1  0
  2  4  1  0
  4  5  1  0
  5  6  2  0
  6  7  1  0
  7  8  1  0
  8  9  2  0
  9 10  1  0
 10 11  2  0
 11 12  1  0
 12 13  2  0
 12 14  1  0
 14 15  1  0
 15 16  2  0
 16 17  1  0
 17 18  2  0
 18 19  1  0
 19 20  1  0
 19 21  2  0
 11 22  1  0
  7 23  2  0
 23 24  1  0
 24  4  2  0
 22  8  1  0
 21 15  1  0
M  END
>  <evidence_status>  (3)
published_ERR_comparator

>  <limits>  (3)
Graph definition only; no oral improvement or human-use validation

$$$$
product_M1
     RDKit          2D

 15 16  0  0  0  0  0  0  0  0999 V2000
   -5.2016   -0.0787    0.0000 O   0  0  0  0  0  0  0  0  0  0  0  0
   -3.9022    0.6707    0.0000 C   0  0  0  0  0  0  0  0  0  0  0  0
   -3.9016    2.1707    0.0000 O   0  0  0  0  0  0  0  0  0  0  0  0
   -2.6035   -0.0798    0.0000 C   0  0  0  0  0  0  0  0  0  0  0  0
   -2.4474   -1.5717    0.0000 C   0  0  0  0  0  0  0  0  0  0  0  0
   -0.9803   -1.8841    0.0000 C   0  0  0  0  0  0  0  0  0  0  0  0
   -0.2297   -0.5854    0.0000 C   0  0  0  0  0  0  0  0  0  0  0  0
    1.2621   -0.4293    0.0000 C   0  0  0  0  0  0  0  0  0  0  0  0
    2.1433   -1.6431    0.0000 C   0  0  0  0  0  0  0  0  0  0  0  0
    3.6351   -1.4870    0.0000 C   0  0  0  0  0  0  0  0  0  0  0  0
    4.2458   -0.1169    0.0000 C   0  0  0  0  0  0  0  0  0  0  0  0
    3.3647    1.0970    0.0000 C   0  0  0  0  0  0  0  0  0  0  0  0
    3.9753    2.4670    0.0000 O   0  0  0  0  0  0  0  0  0  0  0  0
    1.8728    0.9408    0.0000 C   0  0  0  0  0  0  0  0  0  0  0  0
   -1.2329    0.5297    0.0000 S   0  0  0  0  0  0  0  0  0  0  0  0
  1  2  2  0
  2  3  1  0
  2  4  1  0
  4  5  2  0
  5  6  1  0
  6  7  2  0
  7  8  1  0
  8  9  2  0
  9 10  1  0
 10 11  2  0
 11 12  1  0
 12 13  1  0
 12 14  2  0
  7 15  1  0
 15  4  1  0
 14  8  1  0
M  END
>  <evidence_status>  (4)
published_reference_confirmed_transformation_product

>  <limits>  (4)
Graph definition only; no oral improvement or human-use validation

$$$$
product_M3
     RDKit          2D

 17 18  0  0  0  0  0  0  0  0999 V2000
   -5.2643   -1.4133    0.0000 O   0  0  0  0  0  0  0  0  0  0  0  0
   -3.7669   -1.5024    0.0000 B   0  0  0  0  0  0  0  0  0  0  0  0
   -3.0954   -2.8436    0.0000 O   0  0  0  0  0  0  0  0  0  0  0  0
   -2.9411   -0.2502    0.0000 C   0  0  0  0  0  0  0  0  0  0  0  0
   -3.6127    1.0911    0.0000 C   0  0  0  0  0  0  0  0  0  0  0  0
   -2.7869    2.3433    0.0000 C   0  0  0  0  0  0  0  0  0  0  0  0
   -1.2895    2.2543    0.0000 C   0  0  0  0  0  0  0  0  0  0  0  0
   -0.6180    0.9130    0.0000 C   0  0  0  0  0  0  0  0  0  0  0  0
    0.8794    0.8239    0.0000 C   0  0  0  0  0  0  0  0  0  0  0  0
    1.8315    1.9830    0.0000 C   0  0  0  0  0  0  0  0  0  0  0  0
    3.2281    1.4356    0.0000 C   0  0  0  0  0  0  0  0  0  0  0  0
    3.1390   -0.0618    0.0000 C   0  0  0  0  0  0  0  0  0  0  0  0
    4.2981   -1.0139    0.0000 C   0  0  0  0  0  0  0  0  0  0  0  0
    5.7022   -0.4863    0.0000 O   0  0  0  0  0  0  0  0  0  0  0  0
    4.0530   -2.4938    0.0000 O   0  0  0  0  0  0  0  0  0  0  0  0
    1.6874   -0.4398    0.0000 S   0  0  0  0  0  0  0  0  0  0  0  0
   -1.4438   -0.3392    0.0000 C   0  0  0  0  0  0  0  0  0  0  0  0
  1  2  1  0
  2  3  1  0
  2  4  1  0
  4  5  1  0
  5  6  2  0
  6  7  1  0
  7  8  2  0
  8  9  1  0
  9 10  2  0
 10 11  1  0
 11 12  2  0
 12 13  1  0
 13 14  2  0
 13 15  1  0
 12 16  1  0
  8 17  1  0
 17  4  2  0
 16  9  1  0
M  END
>  <evidence_status>  (5)
published_reference_confirmed_transformation_product

>  <limits>  (5)
Graph definition only; no oral improvement or human-use validation

$$$$
product_M4
     RDKit          2D

 22 24  0  0  0  0  0  0  0  0999 V2000
   -5.2528   -3.3149    0.0000 O   0  0  0  0  0  0  0  0  0  0  0  0
   -5.1187   -1.8209    0.0000 C   0  0  0  0  0  0  0  0  0  0  0  0
   -6.3456   -0.9578    0.0000 C   0  0  0  0  0  0  0  0  0  0  0  0
   -6.2115    0.5362    0.0000 C   0  0  0  0  0  0  0  0  0  0  0  0
   -4.8506    1.1671    0.0000 C   0  0  0  0  0  0  0  0  0  0  0  0
   -3.6238    0.3040    0.0000 C   0  0  0  0  0  0  0  0  0  0  0  0
   -2.2630    0.9349    0.0000 C   0  0  0  0  0  0  0  0  0  0  0  0
   -1.9735    2.4067    0.0000 C   0  0  0  0  0  0  0  0  0  0  0  0
   -0.4842    2.5862    0.0000 C   0  0  0  0  0  0  0  0  0  0  0  0
    0.1467    1.2253    0.0000 C   0  0  0  0  0  0  0  0  0  0  0  0
    1.6185    0.9358    0.0000 C   0  0  0  0  0  0  0  0  0  0  0  0
    2.6051    2.0657    0.0000 O   0  0  0  0  0  0  0  0  0  0  0  0
    2.1037   -0.4836    0.0000 N   0  0  0  0  0  0  0  0  0  0  0  0
    3.5755   -0.7731    0.0000 C   0  0  0  0  0  0  0  0  0  0  0  0
    4.0606   -2.1924    0.0000 C   0  0  0  0  0  0  0  0  0  0  0  0
    5.5324   -2.4819    0.0000 C   0  0  0  0  0  0  0  0  0  0  0  0
    6.5191   -1.3520    0.0000 C   0  0  0  0  0  0  0  0  0  0  0  0
    6.0339    0.0673    0.0000 C   0  0  0  0  0  0  0  0  0  0  0  0
    4.5621    0.3568    0.0000 C   0  0  0  0  0  0  0  0  0  0  0  0
    4.0769    1.7762    0.0000 F   0  0  0  0  0  0  0  0  0  0  0  0
   -0.9526    0.2047    0.0000 S   0  0  0  0  0  0  0  0  0  0  0  0
   -3.7579   -1.1900    0.0000 C   0  0  0  0  0  0  0  0  0  0  0  0
  1  2  1  0
  2  3  1  0
  3  4  2  0
  4  5  1  0
  5  6  2  0
  6  7  1  0
  7  8  2  0
  8  9  1  0
  9 10  2  0
 10 11  1  0
 11 12  2  0
 11 13  1  0
 13 14  1  0
 14 15  2  0
 15 16  1  0
 16 17  2  0
 17 18  1  0
 18 19  2  0
 19 20  1  0
 10 21  1  0
  6 22  1  0
 22  2  2  0
 21  7  1  0
 19 14  1  0
M  END
>  <evidence_status>  (6)
published_reference_confirmed_transformation_product

>  <limits>  (6)
Graph definition only; no oral improvement or human-use validation

$$$$
hypothesis_aniline_2_4_difluoro
     RDKit          2D

 25 27  0  0  0  0  0  0  0  0999 V2000
   -6.7345   -3.1043    0.0000 O   0  0  0  0  0  0  0  0  0  0  0  0
   -5.3339   -2.5674    0.0000 B   0  0  0  0  0  0  0  0  0  0  0  0
   -4.1686   -3.5120    0.0000 O   0  0  0  0  0  0  0  0  0  0  0  0
   -5.0985   -1.0860    0.0000 C   0  0  0  0  0  0  0  0  0  0  0  0
   -6.2637   -0.1415    0.0000 C   0  0  0  0  0  0  0  0  0  0  0  0
   -6.0284    1.3399    0.0000 C   0  0  0  0  0  0  0  0  0  0  0  0
   -4.6277    1.8768    0.0000 C   0  0  0  0  0  0  0  0  0  0  0  0
   -3.4625    0.9323    0.0000 C   0  0  0  0  0  0  0  0  0  0  0  0
   -2.0618    1.4691    0.0000 C   0  0  0  0  0  0  0  0  0  0  0  0
   -1.6729    2.9178    0.0000 C   0  0  0  0  0  0  0  0  0  0  0  0
   -0.1749    2.9956    0.0000 C   0  0  0  0  0  0  0  0  0  0  0  0
    0.3619    1.5950    0.0000 C   0  0  0  0  0  0  0  0  0  0  0  0
    1.8106    1.2060    0.0000 C   0  0  0  0  0  0  0  0  0  0  0  0
    2.8718    2.2662    0.0000 O   0  0  0  0  0  0  0  0  0  0  0  0
    2.1982   -0.2430    0.0000 N   0  0  0  0  0  0  0  0  0  0  0  0
    3.6469   -0.6320    0.0000 C   0  0  0  0  0  0  0  0  0  0  0  0
    4.0344   -2.0811    0.0000 C   0  0  0  0  0  0  0  0  0  0  0  0
    5.4831   -2.4700    0.0000 C   0  0  0  0  0  0  0  0  0  0  0  0
    6.5443   -1.4098    0.0000 C   0  0  0  0  0  0  0  0  0  0  0  0
    7.9930   -1.7988    0.0000 F   0  0  0  0  0  0  0  0  0  0  0  0
    6.1567    0.0392    0.0000 C   0  0  0  0  0  0  0  0  0  0  0  0
    4.7080    0.4282    0.0000 C   0  0  0  0  0  0  0  0  0  0  0  0
    4.3205    1.8772    0.0000 F   0  0  0  0  0  0  0  0  0  0  0  0
   -0.8042    0.6516    0.0000 S   0  0  0  0  0  0  0  0  0  0  0  0
   -3.6978   -0.5491    0.0000 C   0  0  0  0  0  0  0  0  0  0  0  0
  1  2  1  0
  2  3  1  0
  2  4  1  0
  4  5  1  0
  5  6  2  0
  6  7  1  0
  7  8  2  0
  8  9  1  0
  9 10  2  0
 10 11  1  0
 11 12  2  0
 12 13  1  0
 13 14  2  0
 13 15  1  0
 15 16  1  0
 16 17  1  0
 17 18  2  0
 18 19  1  0
 19 20  1  0
 19 21  2  0
 21 22  1  0
 22 23  1  0
 12 24  1  0
  8 25  1  0
 25  4  2  0
 24  9  1  0
 22 16  2  0
M  END
>  <evidence_status>  (7)
defined_hypothesis_unvalidated_for_oral_improvement

>  <limits>  (7)
Graph definition only; no oral improvement or human-use validation

$$$$
hypothesis_aniline_2_5_difluoro
     RDKit          2D

 25 27  0  0  0  0  0  0  0  0999 V2000
   -6.5783   -3.1718    0.0000 O   0  0  0  0  0  0  0  0  0  0  0  0
   -5.1904   -2.6028    0.0000 B   0  0  0  0  0  0  0  0  0  0  0  0
   -4.0037   -3.5203    0.0000 O   0  0  0  0  0  0  0  0  0  0  0  0
   -4.9892   -1.1164    0.0000 C   0  0  0  0  0  0  0  0  0  0  0  0
   -6.1759   -0.1989    0.0000 C   0  0  0  0  0  0  0  0  0  0  0  0
   -5.9747    1.2875    0.0000 C   0  0  0  0  0  0  0  0  0  0  0  0
   -4.5868    1.8565    0.0000 C   0  0  0  0  0  0  0  0  0  0  0  0
   -3.4001    0.9390    0.0000 C   0  0  0  0  0  0  0  0  0  0  0  0
   -2.0122    1.5080    0.0000 C   0  0  0  0  0  0  0  0  0  0  0  0
   -1.6567    2.9653    0.0000 C   0  0  0  0  0  0  0  0  0  0  0  0
   -0.1609    3.0775    0.0000 C   0  0  0  0  0  0  0  0  0  0  0  0
    0.4080    1.6896    0.0000 C   0  0  0  0  0  0  0  0  0  0  0  0
    1.8653    1.3342    0.0000 C   0  0  0  0  0  0  0  0  0  0  0  0
    2.9018    2.4184    0.0000 O   0  0  0  0  0  0  0  0  0  0  0  0
    2.2861   -0.1056    0.0000 N   0  0  0  0  0  0  0  0  0  0  0  0
    3.7434   -0.4611    0.0000 C   0  0  0  0  0  0  0  0  0  0  0  0
    4.1642   -1.9009    0.0000 C   0  0  0  0  0  0  0  0  0  0  0  0
    5.6214   -2.2563    0.0000 C   0  0  0  0  0  0  0  0  0  0  0  0
    6.0422   -3.6961    0.0000 F   0  0  0  0  0  0  0  0  0  0  0  0
    6.6579   -1.1720    0.0000 C   0  0  0  0  0  0  0  0  0  0  0  0
    6.2371    0.2677    0.0000 C   0  0  0  0  0  0  0  0  0  0  0  0
    4.7799    0.6232    0.0000 C   0  0  0  0  0  0  0  0  0  0  0  0
    4.3591    2.0630    0.0000 F   0  0  0  0  0  0  0  0  0  0  0  0
   -0.7361    0.7196    0.0000 S   0  0  0  0  0  0  0  0  0  0  0  0
   -3.6013   -0.5474    0.0000 C   0  0  0  0  0  0  0  0  0  0  0  0
  1  2  1  0
  2  3  1  0
  2  4  1  0
  4  5  1  0
  5  6  2  0
  6  7  1  0
  7  8  2  0
  8  9  1  0
  9 10  2  0
 10 11  1  0
 11 12  2  0
 12 13  1  0
 13 14  2  0
 13 15  1  0
 15 16  1  0
 16 17  1  0
 17 18  2  0
 18 19  1  0
 18 20  1  0
 20 21  2  0
 21 22  1  0
 22 23  1  0
 12 24  1  0
  8 25  1  0
 25  4  2  0
 24  9  1  0
 22 16  2  0
M  END
>  <evidence_status>  (8)
defined_hypothesis_unvalidated_for_oral_improvement

>  <limits>  (8)
Graph definition only; no oral improvement or human-use validation

$$$$
hypothesis_amide_N_methyl
     RDKit          2D

 25 27  0  0  0  0  0  0  0  0999 V2000
   -5.4464   -2.3140    0.0000 O   0  0  0  0  0  0  0  0  0  0  0  0
   -4.0168   -1.8598    0.0000 B   0  0  0  0  0  0  0  0  0  0  0  0
   -2.9087   -2.8708    0.0000 O   0  0  0  0  0  0  0  0  0  0  0  0
   -3.6953   -0.3947    0.0000 C   0  0  0  0  0  0  0  0  0  0  0  0
   -4.8035    0.6163    0.0000 C   0  0  0  0  0  0  0  0  0  0  0  0
   -4.4820    2.0814    0.0000 C   0  0  0  0  0  0  0  0  0  0  0  0
   -3.0524    2.5356    0.0000 C   0  0  0  0  0  0  0  0  0  0  0  0
   -1.9443    1.5246    0.0000 C   0  0  0  0  0  0  0  0  0  0  0  0
   -0.5147    1.9788    0.0000 C   0  0  0  0  0  0  0  0  0  0  0  0
   -0.0419    3.4023    0.0000 C   0  0  0  0  0  0  0  0  0  0  0  0
    1.4581    3.3925    0.0000 C   0  0  0  0  0  0  0  0  0  0  0  0
    1.9123    1.9629    0.0000 C   0  0  0  0  0  0  0  0  0  0  0  0
    3.3358    1.4901    0.0000 C   0  0  0  0  0  0  0  0  0  0  0  0
    4.4571    2.4864    0.0000 O   0  0  0  0  0  0  0  0  0  0  0  0
    3.6381    0.0208    0.0000 N   0  0  0  0  0  0  0  0  0  0  0  0
    5.0616   -0.4520    0.0000 C   0  0  0  0  0  0  0  0  0  0  0  0
    2.5168   -0.9755    0.0000 C   0  0  0  0  0  0  0  0  0  0  0  0
    1.0933   -0.5027    0.0000 C   0  0  0  0  0  0  0  0  0  0  0  0
   -0.0280   -1.4991    0.0000 C   0  0  0  0  0  0  0  0  0  0  0  0
    0.2743   -2.9683    0.0000 C   0  0  0  0  0  0  0  0  0  0  0  0
    1.6978   -3.4411    0.0000 C   0  0  0  0  0  0  0  0  0  0  0  0
    2.8191   -2.4448    0.0000 C   0  0  0  0  0  0  0  0  0  0  0  0
    4.2426   -2.9176    0.0000 F   0  0  0  0  0  0  0  0  0  0  0  0
    0.6930    1.0892    0.0000 S   0  0  0  0  0  0  0  0  0  0  0  0
   -2.2658    0.0595    0.0000 C   0  0  0  0  0  0  0  0  0  0  0  0
  1  2  1  0
  2  3  1  0
  2  4  1  0
  4  5  1  0
  5  6  2  0
  6  7  1  0
  7  8  2  0
  8  9  1  0
  9 10  2  0
 10 11  1  0
 11 12  2  0
 12 13  1  0
 13 14  2  0
 13 15  1  0
 15 16  1  0
 15 17  1  0
 17 18  2  0
 18 19  1  0
 19 20  2  0
 20 21  1  0
 21 22  2  0
 22 23  1  0
 12 24  1  0
  8 25  1  0
 25  4  2  0
 24  9  1  0
 22 17  1  0
M  END
>  <evidence_status>  (9)
defined_hypothesis_unvalidated_for_oral_improvement

>  <limits>  (9)
Graph definition only; no oral improvement or human-use validation

$$$$
hypothesis_boronic_pinacol_ester
     RDKit          2D

 30 33  0  0  0  0  0  0  0  0999 V2000
   -8.1668   -1.3578    0.0000 C   0  0  0  0  0  0  0  0  0  0  0  0
   -7.2779   -0.1496    0.0000 C   0  0  0  0  0  0  0  0  0  0  0  0
   -8.5725    0.6081    0.0000 C   0  0  0  0  0  0  0  0  0  0  0  0
   -6.1692   -1.1599    0.0000 O   0  0  0  0  0  0  0  0  0  0  0  0
   -4.8657   -0.4177    0.0000 B   0  0  0  0  0  0  0  0  0  0  0  0
   -3.4991   -1.0359    0.0000 C   0  0  0  0  0  0  0  0  0  0  0  0
   -3.3512   -2.5286    0.0000 C   0  0  0  0  0  0  0  0  0  0  0  0
   -1.9845   -3.1468    0.0000 C   0  0  0  0  0  0  0  0  0  0  0  0
   -0.7657   -2.2724    0.0000 C   0  0  0  0  0  0  0  0  0  0  0  0
   -0.9137   -0.7797    0.0000 C   0  0  0  0  0  0  0  0  0  0  0  0
    0.3051    0.0947    0.0000 C   0  0  0  0  0  0  0  0  0  0  0  0
    0.3140    1.5947    0.0000 C   0  0  0  0  0  0  0  0  0  0  0  0
    1.7434    2.0497    0.0000 C   0  0  0  0  0  0  0  0  0  0  0  0
    2.6178    0.8310    0.0000 C   0  0  0  0  0  0  0  0  0  0  0  0
    4.1178    0.8220    0.0000 C   0  0  0  0  0  0  0  0  0  0  0  0
    4.8755    2.1166    0.0000 O   0  0  0  0  0  0  0  0  0  0  0  0
    4.8600   -0.4814    0.0000 N   0  0  0  0  0  0  0  0  0  0  0  0
    6.3600   -0.4904    0.0000 C   0  0  0  0  0  0  0  0  0  0  0  0
    7.1022   -1.7939    0.0000 C   0  0  0  0  0  0  0  0  0  0  0  0
    8.6022   -1.8028    0.0000 C   0  0  0  0  0  0  0  0  0  0  0  0
    9.3599   -0.5082    0.0000 C   0  0  0  0  0  0  0  0  0  0  0  0
    8.6177    0.7952    0.0000 C   0  0  0  0  0  0  0  0  0  0  0  0
    7.1177    0.8042    0.0000 C   0  0  0  0  0  0  0  0  0  0  0  0
    6.3755    2.1077    0.0000 F   0  0  0  0  0  0  0  0  0  0  0  0
    1.7289   -0.3773    0.0000 S   0  0  0  0  0  0  0  0  0  0  0  0
   -2.2803   -0.1615    0.0000 C   0  0  0  0  0  0  0  0  0  0  0  0
   -5.1689    1.0514    0.0000 O   0  0  0  0  0  0  0  0  0  0  0  0
   -6.6597    1.2171    0.0000 C   0  0  0  0  0  0  0  0  0  0  0  0
   -8.0835    1.6891    0.0000 C   0  0  0  0  0  0  0  0  0  0  0  0
   -6.3391    2.6824    0.0000 C   0  0  0  0  0  0  0  0  0  0  0  0
  1  2  1  0
  2  3  1  0
  2  4  1  0
  4  5  1  0
  5  6  1  0
  6  7  1  0
  7  8  2  0
  8  9  1  0
  9 10  2  0
 10 11  1  0
 11 12  2  0
 12 13  1  0
 13 14  2  0
 14 15  1  0
 15 16  2  0
 15 17  1  0
 17 18  1  0
 18 19  2  0
 19 20  1  0
 20 21  2  0
 21 22  1  0
 22 23  2  0
 23 24  1  0
 14 25  1  0
 10 26  1  0
  5 27  1  0
 27 28  1  0
 28 29  1  0
 28 30  1  0
 28  2  1  0
 26  6  2  0
 25 11  1  0
 23 18  1  0
M  END
>  <evidence_status>  (10)
defined_precursor_hypothesis_unvalidated_for_oral_improvement

>  <limits>  (10)
Graph definition only; no oral improvement or human-use validation

$$$$
