SS31
     RDKit          2D

 46 47  0  0  0  0  0  0  0  0999 V2000
    5.5084   -0.1223    0.0000 N   0  0  0  0  0  0  0  0  0  0  0  0
    4.2523    0.6977    0.0000 C   0  0  0  0  0  0  0  0  0  0  0  0
    4.3344    2.1954    0.0000 C   0  0  0  0  0  0  0  0  0  0  0  0
    5.6726    2.8732    0.0000 C   0  0  0  0  0  0  0  0  0  0  0  0
    5.7547    4.3709    0.0000 C   0  0  0  0  0  0  0  0  0  0  0  0
    7.0928    5.0487    0.0000 N   0  0  0  0  0  0  0  0  0  0  0  0
    7.1749    6.5465    0.0000 C   0  0  0  0  0  0  0  0  0  0  0  0
    5.9188    7.3664    0.0000 N   0  0  0  0  0  0  0  0  0  0  0  0
    8.5130    7.2242    0.0000 N   0  0  0  0  0  0  0  0  0  0  0  0
    2.9142    0.0199    0.0000 C   0  0  0  0  0  0  0  0  0  0  0  0
    1.6581    0.8399    0.0000 O   0  0  0  0  0  0  0  0  0  0  0  0
    2.8321   -1.4779    0.0000 N   0  0  0  0  0  0  0  0  0  0  0  0
    1.4939   -2.1557    0.0000 C   0  0  0  0  0  0  0  0  0  0  0  0
    1.4118   -3.6534    0.0000 C   0  0  0  0  0  0  0  0  0  0  0  0
    2.6679   -4.4734    0.0000 C   0  0  0  0  0  0  0  0  0  0  0  0
    2.5858   -5.9711    0.0000 C   0  0  0  0  0  0  0  0  0  0  0  0
    1.2476   -6.6489    0.0000 C   0  0  0  0  0  0  0  0  0  0  0  0
    3.8418   -6.7911    0.0000 C   0  0  0  0  0  0  0  0  0  0  0  0
    5.1800   -6.1133    0.0000 C   0  0  0  0  0  0  0  0  0  0  0  0
    6.4360   -6.9333    0.0000 O   0  0  0  0  0  0  0  0  0  0  0  0
    5.2621   -4.6156    0.0000 C   0  0  0  0  0  0  0  0  0  0  0  0
    4.0060   -3.7956    0.0000 C   0  0  0  0  0  0  0  0  0  0  0  0
    4.0881   -2.2979    0.0000 C   0  0  0  0  0  0  0  0  0  0  0  0
    0.2379   -1.3357    0.0000 C   0  0  0  0  0  0  0  0  0  0  0  0
   -1.1002   -2.0135    0.0000 O   0  0  0  0  0  0  0  0  0  0  0  0
    0.3200    0.1621    0.0000 N   0  0  0  0  0  0  0  0  0  0  0  0
   -0.9361    0.9821    0.0000 C   0  0  0  0  0  0  0  0  0  0  0  0
   -0.8540    2.4798    0.0000 C   0  0  0  0  0  0  0  0  0  0  0  0
   -2.1100    3.2998    0.0000 C   0  0  0  0  0  0  0  0  0  0  0  0
   -2.0279    4.7975    0.0000 C   0  0  0  0  0  0  0  0  0  0  0  0
   -3.2839    5.6175    0.0000 C   0  0  0  0  0  0  0  0  0  0  0  0
   -3.2018    7.1153    0.0000 N   0  0  0  0  0  0  0  0  0  0  0  0
   -2.2742    0.3043    0.0000 C   0  0  0  0  0  0  0  0  0  0  0  0
   -2.3563   -1.1935    0.0000 O   0  0  0  0  0  0  0  0  0  0  0  0
   -3.5302    1.1243    0.0000 N   0  0  0  0  0  0  0  0  0  0  0  0
   -4.8684    0.4465    0.0000 C   0  0  0  0  0  0  0  0  0  0  0  0
   -6.1244    1.2665    0.0000 C   0  0  0  0  0  0  0  0  0  0  0  0
   -7.4626    0.5887    0.0000 C   0  0  0  0  0  0  0  0  0  0  0  0
   -8.7186    1.4087    0.0000 C   0  0  0  0  0  0  0  0  0  0  0  0
  -10.0567    0.7309    0.0000 C   0  0  0  0  0  0  0  0  0  0  0  0
  -10.1388   -0.7669    0.0000 C   0  0  0  0  0  0  0  0  0  0  0  0
   -8.8828   -1.5869    0.0000 C   0  0  0  0  0  0  0  0  0  0  0  0
   -7.5447   -0.9091    0.0000 C   0  0  0  0  0  0  0  0  0  0  0  0
   -4.9505   -1.0513    0.0000 C   0  0  0  0  0  0  0  0  0  0  0  0
   -3.6944   -1.8713    0.0000 O   0  0  0  0  0  0  0  0  0  0  0  0
   -6.2886   -1.7291    0.0000 N   0  0  0  0  0  0  0  0  0  0  0  0
  2  1  1  1
  2  3  1  0
  3  4  1  0
  4  5  1  0
  5  6  1  0
  6  7  1  0
  7  8  2  0
  7  9  1  0
  2 10  1  0
 10 11  2  0
 10 12  1  0
 12 13  1  0
 13 14  1  1
 14 15  1  0
 15 16  2  0
 16 17  1  0
 16 18  1  0
 18 19  2  0
 19 20  1  0
 19 21  1  0
 21 22  2  0
 22 23  1  0
 13 24  1  0
 24 25  2  0
 24 26  1  0
 26 27  1  0
 27 28  1  6
 28 29  1  0
 29 30  1  0
 30 31  1  0
 31 32  1  0
 27 33  1  0
 33 34  2  0
 33 35  1  0
 35 36  1  0
 36 37  1  6
 37 38  1  0
 38 39  2  0
 39 40  1  0
 40 41  2  0
 41 42  1  0
 42 43  2  0
 36 44  1  0
 44 45  2  0
 44 46  1  0
 22 15  1  0
 43 38  1  0
M  END
>  <evidence_status>  (1) 
published_reference

>  <limits>  (1) 
Graph specification only; no oral PK or biological validation

$$$$
SPN4
     RDKit          2D

 44 45  0  0  0  0  0  0  0  0999 V2000
    5.6160   -0.5094    0.0000 N   0  0  0  0  0  0  0  0  0  0  0  0
    4.3874    0.3512    0.0000 C   0  0  0  0  0  0  0  0  0  0  0  0
    4.5184    1.8455    0.0000 C   0  0  0  0  0  0  0  0  0  0  0  0
    5.8779    2.4792    0.0000 C   0  0  0  0  0  0  0  0  0  0  0  0
    6.0089    3.9734    0.0000 C   0  0  0  0  0  0  0  0  0  0  0  0
    7.3685    4.6071    0.0000 N   0  0  0  0  0  0  0  0  0  0  0  0
    7.4995    6.1014    0.0000 C   0  0  0  0  0  0  0  0  0  0  0  0
    6.2709    6.9620    0.0000 N   0  0  0  0  0  0  0  0  0  0  0  0
    8.8590    6.7351    0.0000 N   0  0  0  0  0  0  0  0  0  0  0  0
    3.0278   -0.2825    0.0000 C   0  0  0  0  0  0  0  0  0  0  0  0
    1.7992    0.5781    0.0000 O   0  0  0  0  0  0  0  0  0  0  0  0
    2.8968   -1.7768    0.0000 N   0  0  0  0  0  0  0  0  0  0  0  0
    1.5373   -2.4105    0.0000 C   0  0  0  0  0  0  0  0  0  0  0  0
    1.4063   -3.9048    0.0000 C   0  0  0  0  0  0  0  0  0  0  0  0
    2.6349   -4.7653    0.0000 C   0  0  0  0  0  0  0  0  0  0  0  0
    2.5039   -6.2596    0.0000 C   0  0  0  0  0  0  0  0  0  0  0  0
    3.7325   -7.1202    0.0000 C   0  0  0  0  0  0  0  0  0  0  0  0
    5.0921   -6.4865    0.0000 C   0  0  0  0  0  0  0  0  0  0  0  0
    6.3206   -7.3470    0.0000 O   0  0  0  0  0  0  0  0  0  0  0  0
    5.2230   -4.9922    0.0000 C   0  0  0  0  0  0  0  0  0  0  0  0
    3.9944   -4.1316    0.0000 C   0  0  0  0  0  0  0  0  0  0  0  0
    0.3087   -1.5499    0.0000 C   0  0  0  0  0  0  0  0  0  0  0  0
   -1.0509   -2.1836    0.0000 O   0  0  0  0  0  0  0  0  0  0  0  0
    0.4397   -0.0557    0.0000 N   0  0  0  0  0  0  0  0  0  0  0  0
   -0.7889    0.8049    0.0000 C   0  0  0  0  0  0  0  0  0  0  0  0
   -0.6579    2.2992    0.0000 C   0  0  0  0  0  0  0  0  0  0  0  0
   -1.8865    3.1598    0.0000 C   0  0  0  0  0  0  0  0  0  0  0  0
   -1.7555    4.6540    0.0000 C   0  0  0  0  0  0  0  0  0  0  0  0
   -2.9841    5.5146    0.0000 C   0  0  0  0  0  0  0  0  0  0  0  0
   -2.8531    7.0089    0.0000 N   0  0  0  0  0  0  0  0  0  0  0  0
   -2.1485    0.1712    0.0000 C   0  0  0  0  0  0  0  0  0  0  0  0
   -2.2795   -1.3231    0.0000 O   0  0  0  0  0  0  0  0  0  0  0  0
   -3.3771    1.0318    0.0000 N   0  0  0  0  0  0  0  0  0  0  0  0
   -4.7366    0.3981    0.0000 C   0  0  0  0  0  0  0  0  0  0  0  0
   -5.9652    1.2587    0.0000 C   0  0  0  0  0  0  0  0  0  0  0  0
   -7.3248    0.6250    0.0000 C   0  0  0  0  0  0  0  0  0  0  0  0
   -8.5534    1.4855    0.0000 C   0  0  0  0  0  0  0  0  0  0  0  0
   -9.9129    0.8518    0.0000 C   0  0  0  0  0  0  0  0  0  0  0  0
  -10.0439   -0.6425    0.0000 C   0  0  0  0  0  0  0  0  0  0  0  0
   -8.8153   -1.5030    0.0000 C   0  0  0  0  0  0  0  0  0  0  0  0
   -7.4558   -0.8693    0.0000 C   0  0  0  0  0  0  0  0  0  0  0  0
   -4.8676   -1.0962    0.0000 C   0  0  0  0  0  0  0  0  0  0  0  0
   -3.6390   -1.9568    0.0000 O   0  0  0  0  0  0  0  0  0  0  0  0
   -6.2272   -1.7299    0.0000 N   0  0  0  0  0  0  0  0  0  0  0  0
  2  1  1  1
  2  3  1  0
  3  4  1  0
  4  5  1  0
  5  6  1  0
  6  7  1  0
  7  8  2  0
  7  9  1  0
  2 10  1  0
 10 11  2  0
 10 12  1  0
 12 13  1  0
 13 14  1  1
 14 15  1  0
 15 16  1  0
 16 17  2  0
 17 18  1  0
 18 19  1  0
 18 20  2  0
 20 21  1  0
 13 22  1  0
 22 23  2  0
 22 24  1  0
 24 25  1  0
 25 26  1  6
 26 27  1  0
 27 28  1  0
 28 29  1  0
 29 30  1  0
 25 31  1  0
 31 32  2  0
 31 33  1  0
 33 34  1  0
 34 35  1  6
 35 36  1  0
 36 37  2  0
 37 38  1  0
 38 39  2  0
 39 40  1  0
 40 41  2  0
 34 42  1  0
 42 43  2  0
 42 44  1  0
 21 15  2  0
 41 36  1  0
M  END
>  <evidence_status>  (2) 
published_cell_and_membrane_comparator

>  <limits>  (2) 
Graph specification only; no oral PK or biological validation

$$$$
SS20
     RDKit          2D

 43 44  0  0  0  0  0  0  0  0999 V2000
    6.0428    1.0497    0.0000 N   0  0  0  0  0  0  0  0  0  0  0  0
    4.8777    0.1049    0.0000 C   0  0  0  0  0  0  0  0  0  0  0  0
    5.1134   -1.3765    0.0000 C   0  0  0  0  0  0  0  0  0  0  0  0
    6.5142   -1.9131    0.0000 C   0  0  0  0  0  0  0  0  0  0  0  0
    6.7498   -3.3944    0.0000 C   0  0  0  0  0  0  0  0  0  0  0  0
    8.1506   -3.9310    0.0000 C   0  0  0  0  0  0  0  0  0  0  0  0
    9.3156   -2.9862    0.0000 C   0  0  0  0  0  0  0  0  0  0  0  0
    9.0800   -1.5049    0.0000 C   0  0  0  0  0  0  0  0  0  0  0  0
    7.6792   -0.9683    0.0000 C   0  0  0  0  0  0  0  0  0  0  0  0
    3.4770    0.6415    0.0000 C   0  0  0  0  0  0  0  0  0  0  0  0
    2.3119   -0.3033    0.0000 O   0  0  0  0  0  0  0  0  0  0  0  0
    3.2413    2.1228    0.0000 N   0  0  0  0  0  0  0  0  0  0  0  0
    1.8406    2.6594    0.0000 C   0  0  0  0  0  0  0  0  0  0  0  0
    1.6049    4.1408    0.0000 C   0  0  0  0  0  0  0  0  0  0  0  0
    0.2041    4.6774    0.0000 C   0  0  0  0  0  0  0  0  0  0  0  0
   -0.0315    6.1587    0.0000 C   0  0  0  0  0  0  0  0  0  0  0  0
   -1.4323    6.6953    0.0000 N   0  0  0  0  0  0  0  0  0  0  0  0
   -1.6679    8.1767    0.0000 C   0  0  0  0  0  0  0  0  0  0  0  0
   -0.5029    9.1215    0.0000 N   0  0  0  0  0  0  0  0  0  0  0  0
   -3.0687    8.7133    0.0000 N   0  0  0  0  0  0  0  0  0  0  0  0
    0.6755    1.7146    0.0000 C   0  0  0  0  0  0  0  0  0  0  0  0
    0.9112    0.2333    0.0000 O   0  0  0  0  0  0  0  0  0  0  0  0
   -0.7252    2.2512    0.0000 N   0  0  0  0  0  0  0  0  0  0  0  0
   -1.8903    1.3064    0.0000 C   0  0  0  0  0  0  0  0  0  0  0  0
   -3.2910    1.8430    0.0000 C   0  0  0  0  0  0  0  0  0  0  0  0
   -4.4561    0.8982    0.0000 C   0  0  0  0  0  0  0  0  0  0  0  0
   -5.8569    1.4348    0.0000 C   0  0  0  0  0  0  0  0  0  0  0  0
   -7.0219    0.4900    0.0000 C   0  0  0  0  0  0  0  0  0  0  0  0
   -6.7862   -0.9913    0.0000 C   0  0  0  0  0  0  0  0  0  0  0  0
   -5.3855   -1.5279    0.0000 C   0  0  0  0  0  0  0  0  0  0  0  0
   -4.2204   -0.5831    0.0000 C   0  0  0  0  0  0  0  0  0  0  0  0
   -1.6546   -0.1749    0.0000 C   0  0  0  0  0  0  0  0  0  0  0  0
   -0.2539   -0.7115    0.0000 O   0  0  0  0  0  0  0  0  0  0  0  0
   -2.8197   -1.1197    0.0000 N   0  0  0  0  0  0  0  0  0  0  0  0
   -2.5840   -2.6011    0.0000 C   0  0  0  0  0  0  0  0  0  0  0  0
   -3.7491   -3.5459    0.0000 C   0  0  0  0  0  0  0  0  0  0  0  0
   -3.5134   -5.0272    0.0000 C   0  0  0  0  0  0  0  0  0  0  0  0
   -4.6785   -5.9720    0.0000 C   0  0  0  0  0  0  0  0  0  0  0  0
   -4.4428   -7.4534    0.0000 C   0  0  0  0  0  0  0  0  0  0  0  0
   -5.6079   -8.3982    0.0000 N   0  0  0  0  0  0  0  0  0  0  0  0
   -1.1833   -3.1377    0.0000 C   0  0  0  0  0  0  0  0  0  0  0  0
   -0.0182   -2.1929    0.0000 O   0  0  0  0  0  0  0  0  0  0  0  0
   -0.9476   -4.6190    0.0000 N   0  0  0  0  0  0  0  0  0  0  0  0
  2  1  1  1
  2  3  1  0
  3  4  1  0
  4  5  2  0
  5  6  1  0
  6  7  2  0
  7  8  1  0
  8  9  2  0
  2 10  1  0
 10 11  2  0
 10 12  1  0
 12 13  1  0
 13 14  1  1
 14 15  1  0
 15 16  1  0
 16 17  1  0
 17 18  1  0
 18 19  2  0
 18 20  1  0
 13 21  1  0
 21 22  2  0
 21 23  1  0
 23 24  1  0
 24 25  1  6
 25 26  1  0
 26 27  2  0
 27 28  1  0
 28 29  2  0
 29 30  1  0
 30 31  2  0
 24 32  1  0
 32 33  2  0
 32 34  1  0
 34 35  1  0
 35 36  1  6
 36 37  1  0
 37 38  1  0
 38 39  1  0
 39 40  1  0
 35 41  1  0
 41 42  2  0
 41 43  1  0
  9  4  1  0
 31 26  1  0
M  END
>  <evidence_status>  (3) 
published_cell_and_membrane_comparator

>  <limits>  (3) 
Graph specification only; no oral PK or biological validation

$$$$
SPN10
     RDKit          2D

 49 52  0  0  0  0  0  0  0  0999 V2000
    5.2517   -3.4002    0.0000 N   0  0  0  0  0  0  0  0  0  0  0  0
    4.5068   -2.0982    0.0000 C   0  0  0  0  0  0  0  0  0  0  0  0
    5.2619   -0.8021    0.0000 C   0  0  0  0  0  0  0  0  0  0  0  0
    6.7619   -0.8080    0.0000 C   0  0  0  0  0  0  0  0  0  0  0  0
    7.6388   -2.0250    0.0000 C   0  0  0  0  0  0  0  0  0  0  0  0
    9.0672   -1.5671    0.0000 N   0  0  0  0  0  0  0  0  0  0  0  0
    9.0731   -0.0671    0.0000 C   0  0  0  0  0  0  0  0  0  0  0  0
   10.1918    0.9322    0.0000 C   0  0  0  0  0  0  0  0  0  0  0  0
    9.8857    2.4006    0.0000 C   0  0  0  0  0  0  0  0  0  0  0  0
    8.4609    2.8697    0.0000 C   0  0  0  0  0  0  0  0  0  0  0  0
    7.3422    1.8704    0.0000 C   0  0  0  0  0  0  0  0  0  0  0  0
    7.6483    0.4020    0.0000 C   0  0  0  0  0  0  0  0  0  0  0  0
    3.0068   -2.0923    0.0000 C   0  0  0  0  0  0  0  0  0  0  0  0
    2.2619   -0.7904    0.0000 O   0  0  0  0  0  0  0  0  0  0  0  0
    2.2517   -3.3884    0.0000 N   0  0  0  0  0  0  0  0  0  0  0  0
    0.7517   -3.3825    0.0000 C   0  0  0  0  0  0  0  0  0  0  0  0
   -0.0034   -4.6786    0.0000 C   0  0  0  0  0  0  0  0  0  0  0  0
   -1.5033   -4.6727    0.0000 C   0  0  0  0  0  0  0  0  0  0  0  0
   -2.2584   -5.9688    0.0000 C   0  0  0  0  0  0  0  0  0  0  0  0
   -3.7584   -5.9629    0.0000 N   0  0  0  0  0  0  0  0  0  0  0  0
   -4.5135   -7.2590    0.0000 C   0  0  0  0  0  0  0  0  0  0  0  0
   -3.7686   -8.5609    0.0000 N   0  0  0  0  0  0  0  0  0  0  0  0
   -6.0135   -7.2531    0.0000 N   0  0  0  0  0  0  0  0  0  0  0  0
    0.0069   -2.0805    0.0000 C   0  0  0  0  0  0  0  0  0  0  0  0
    0.7620   -0.7845    0.0000 O   0  0  0  0  0  0  0  0  0  0  0  0
   -1.4931   -2.0746    0.0000 N   0  0  0  0  0  0  0  0  0  0  0  0
   -2.2380   -0.7727    0.0000 C   0  0  0  0  0  0  0  0  0  0  0  0
   -3.7380   -0.7668    0.0000 C   0  0  0  0  0  0  0  0  0  0  0  0
   -4.4829    0.5352    0.0000 C   0  0  0  0  0  0  0  0  0  0  0  0
   -3.8674    1.9031    0.0000 C   0  0  0  0  0  0  0  0  0  0  0  0
   -4.9782    2.9112    0.0000 N   0  0  0  0  0  0  0  0  0  0  0  0
   -6.2802    2.1663    0.0000 C   0  0  0  0  0  0  0  0  0  0  0  0
   -7.7049    2.6354    0.0000 C   0  0  0  0  0  0  0  0  0  0  0  0
   -8.8236    1.6361    0.0000 C   0  0  0  0  0  0  0  0  0  0  0  0
   -8.5175    0.1677    0.0000 C   0  0  0  0  0  0  0  0  0  0  0  0
   -7.0927   -0.3015    0.0000 C   0  0  0  0  0  0  0  0  0  0  0  0
   -5.9741    0.6979    0.0000 C   0  0  0  0  0  0  0  0  0  0  0  0
   -1.4829    0.5234    0.0000 C   0  0  0  0  0  0  0  0  0  0  0  0
    0.0171    0.5175    0.0000 O   0  0  0  0  0  0  0  0  0  0  0  0
   -2.2278    1.8254    0.0000 N   0  0  0  0  0  0  0  0  0  0  0  0
   -1.4727    3.1215    0.0000 C   0  0  0  0  0  0  0  0  0  0  0  0
   -2.2176    4.4234    0.0000 C   0  0  0  0  0  0  0  0  0  0  0  0
   -1.4625    5.7195    0.0000 C   0  0  0  0  0  0  0  0  0  0  0  0
   -2.2074    7.0215    0.0000 C   0  0  0  0  0  0  0  0  0  0  0  0
   -1.4523    8.3176    0.0000 C   0  0  0  0  0  0  0  0  0  0  0  0
   -2.1972    9.6196    0.0000 N   0  0  0  0  0  0  0  0  0  0  0  0
    0.0273    3.1156    0.0000 C   0  0  0  0  0  0  0  0  0  0  0  0
    0.7722    1.8136    0.0000 O   0  0  0  0  0  0  0  0  0  0  0  0
    0.7824    4.4116    0.0000 N   0  0  0  0  0  0  0  0  0  0  0  0
  2  1  1  6
  2  3  1  0
  3  4  1  0
  4  5  2  0
  5  6  1  0
  6  7  1  0
  7  8  2  0
  8  9  1  0
  9 10  2  0
 10 11  1  0
 11 12  2  0
  2 13  1  0
 13 14  2  0
 13 15  1  0
 15 16  1  0
 16 17  1  1
 17 18  1  0
 18 19  1  0
 19 20  1  0
 20 21  1  0
 21 22  2  0
 21 23  1  0
 16 24  1  0
 24 25  2  0
 24 26  1  0
 26 27  1  0
 27 28  1  1
 28 29  1  0
 29 30  2  0
 30 31  1  0
 31 32  1  0
 32 33  2  0
 33 34  1  0
 34 35  2  0
 35 36  1  0
 36 37  2  0
 27 38  1  0
 38 39  2  0
 38 40  1  0
 40 41  1  0
 41 42  1  1
 42 43  1  0
 43 44  1  0
 44 45  1  0
 45 46  1  0
 41 47  1  0
 47 48  2  0
 47 49  1  0
 12  4  1  0
 37 29  1  0
 12  7  1  0
 37 32  1  0
M  END
>  <evidence_status>  (4) 
published_cell_and_membrane_comparator

>  <limits>  (4) 
Graph specification only; no oral PK or biological validation

$$$$
SS31_terminal_D_Phe
     RDKit          2D

 46 47  0  0  0  0  0  0  0  0999 V2000
    5.5084   -0.1223    0.0000 N   0  0  0  0  0  0  0  0  0  0  0  0
    4.2523    0.6977    0.0000 C   0  0  0  0  0  0  0  0  0  0  0  0
    4.3344    2.1954    0.0000 C   0  0  0  0  0  0  0  0  0  0  0  0
    5.6726    2.8732    0.0000 C   0  0  0  0  0  0  0  0  0  0  0  0
    5.7547    4.3709    0.0000 C   0  0  0  0  0  0  0  0  0  0  0  0
    7.0928    5.0487    0.0000 N   0  0  0  0  0  0  0  0  0  0  0  0
    7.1749    6.5465    0.0000 C   0  0  0  0  0  0  0  0  0  0  0  0
    5.9188    7.3664    0.0000 N   0  0  0  0  0  0  0  0  0  0  0  0
    8.5130    7.2242    0.0000 N   0  0  0  0  0  0  0  0  0  0  0  0
    2.9142    0.0199    0.0000 C   0  0  0  0  0  0  0  0  0  0  0  0
    1.6581    0.8399    0.0000 O   0  0  0  0  0  0  0  0  0  0  0  0
    2.8321   -1.4779    0.0000 N   0  0  0  0  0  0  0  0  0  0  0  0
    1.4939   -2.1557    0.0000 C   0  0  0  0  0  0  0  0  0  0  0  0
    1.4118   -3.6534    0.0000 C   0  0  0  0  0  0  0  0  0  0  0  0
    2.6679   -4.4734    0.0000 C   0  0  0  0  0  0  0  0  0  0  0  0
    2.5858   -5.9711    0.0000 C   0  0  0  0  0  0  0  0  0  0  0  0
    1.2476   -6.6489    0.0000 C   0  0  0  0  0  0  0  0  0  0  0  0
    3.8418   -6.7911    0.0000 C   0  0  0  0  0  0  0  0  0  0  0  0
    5.1800   -6.1133    0.0000 C   0  0  0  0  0  0  0  0  0  0  0  0
    6.4360   -6.9333    0.0000 O   0  0  0  0  0  0  0  0  0  0  0  0
    5.2621   -4.6156    0.0000 C   0  0  0  0  0  0  0  0  0  0  0  0
    4.0060   -3.7956    0.0000 C   0  0  0  0  0  0  0  0  0  0  0  0
    4.0881   -2.2979    0.0000 C   0  0  0  0  0  0  0  0  0  0  0  0
    0.2379   -1.3357    0.0000 C   0  0  0  0  0  0  0  0  0  0  0  0
   -1.1002   -2.0135    0.0000 O   0  0  0  0  0  0  0  0  0  0  0  0
    0.3200    0.1621    0.0000 N   0  0  0  0  0  0  0  0  0  0  0  0
   -0.9361    0.9821    0.0000 C   0  0  0  0  0  0  0  0  0  0  0  0
   -0.8540    2.4798    0.0000 C   0  0  0  0  0  0  0  0  0  0  0  0
   -2.1100    3.2998    0.0000 C   0  0  0  0  0  0  0  0  0  0  0  0
   -2.0279    4.7975    0.0000 C   0  0  0  0  0  0  0  0  0  0  0  0
   -3.2839    5.6175    0.0000 C   0  0  0  0  0  0  0  0  0  0  0  0
   -3.2018    7.1153    0.0000 N   0  0  0  0  0  0  0  0  0  0  0  0
   -2.2742    0.3043    0.0000 C   0  0  0  0  0  0  0  0  0  0  0  0
   -2.3563   -1.1935    0.0000 O   0  0  0  0  0  0  0  0  0  0  0  0
   -3.5302    1.1243    0.0000 N   0  0  0  0  0  0  0  0  0  0  0  0
   -4.8684    0.4465    0.0000 C   0  0  0  0  0  0  0  0  0  0  0  0
   -6.1244    1.2665    0.0000 C   0  0  0  0  0  0  0  0  0  0  0  0
   -7.4626    0.5887    0.0000 C   0  0  0  0  0  0  0  0  0  0  0  0
   -8.7186    1.4087    0.0000 C   0  0  0  0  0  0  0  0  0  0  0  0
  -10.0567    0.7309    0.0000 C   0  0  0  0  0  0  0  0  0  0  0  0
  -10.1388   -0.7669    0.0000 C   0  0  0  0  0  0  0  0  0  0  0  0
   -8.8828   -1.5869    0.0000 C   0  0  0  0  0  0  0  0  0  0  0  0
   -7.5447   -0.9091    0.0000 C   0  0  0  0  0  0  0  0  0  0  0  0
   -4.9505   -1.0513    0.0000 C   0  0  0  0  0  0  0  0  0  0  0  0
   -3.6944   -1.8713    0.0000 O   0  0  0  0  0  0  0  0  0  0  0  0
   -6.2886   -1.7291    0.0000 N   0  0  0  0  0  0  0  0  0  0  0  0
  2  1  1  1
  2  3  1  0
  3  4  1  0
  4  5  1  0
  5  6  1  0
  6  7  1  0
  7  8  2  0
  7  9  1  0
  2 10  1  0
 10 11  2  0
 10 12  1  0
 12 13  1  0
 13 14  1  1
 14 15  1  0
 15 16  2  0
 16 17  1  0
 16 18  1  0
 18 19  2  0
 19 20  1  0
 19 21  1  0
 21 22  2  0
 22 23  1  0
 13 24  1  0
 24 25  2  0
 24 26  1  0
 26 27  1  0
 27 28  1  6
 28 29  1  0
 29 30  1  0
 30 31  1  0
 31 32  1  0
 27 33  1  0
 33 34  2  0
 33 35  1  0
 35 36  1  0
 36 37  1  1
 37 38  1  0
 38 39  2  0
 39 40  1  0
 40 41  2  0
 41 42  1  0
 42 43  2  0
 36 44  1  0
 44 45  2  0
 44 46  1  0
 22 15  1  0
 43 38  1  0
M  END
>  <evidence_status>  (5) 
research_hypothesis_unvalidated_here

>  <limits>  (5) 
Graph specification only; no oral PK or biological validation

$$$$
SS31_N_acetyl
     RDKit          2D

 49 50  0  0  0  0  0  0  0  0999 V2000
    7.6475   -0.4774    0.0000 C   0  0  0  0  0  0  0  0  0  0  0  0
    6.4095    0.3695    0.0000 C   0  0  0  0  0  0  0  0  0  0  0  0
    6.5238    1.8651    0.0000 O   0  0  0  0  0  0  0  0  0  0  0  0
    5.0570   -0.2793    0.0000 N   0  0  0  0  0  0  0  0  0  0  0  0
    3.8190    0.5676    0.0000 C   0  0  0  0  0  0  0  0  0  0  0  0
    3.9333    2.0632    0.0000 C   0  0  0  0  0  0  0  0  0  0  0  0
    5.2858    2.7120    0.0000 C   0  0  0  0  0  0  0  0  0  0  0  0
    5.4002    4.2076    0.0000 C   0  0  0  0  0  0  0  0  0  0  0  0
    6.7526    4.8564    0.0000 N   0  0  0  0  0  0  0  0  0  0  0  0
    6.8670    6.3520    0.0000 C   0  0  0  0  0  0  0  0  0  0  0  0
    5.6289    7.1989    0.0000 N   0  0  0  0  0  0  0  0  0  0  0  0
    8.2194    7.0008    0.0000 N   0  0  0  0  0  0  0  0  0  0  0  0
    2.4665   -0.0812    0.0000 C   0  0  0  0  0  0  0  0  0  0  0  0
    1.2284    0.7657    0.0000 O   0  0  0  0  0  0  0  0  0  0  0  0
    2.3521   -1.5768    0.0000 N   0  0  0  0  0  0  0  0  0  0  0  0
    0.9997   -2.2256    0.0000 C   0  0  0  0  0  0  0  0  0  0  0  0
    0.8853   -3.7212    0.0000 C   0  0  0  0  0  0  0  0  0  0  0  0
    2.1234   -4.5681    0.0000 C   0  0  0  0  0  0  0  0  0  0  0  0
    2.0090   -6.0637    0.0000 C   0  0  0  0  0  0  0  0  0  0  0  0
    0.6566   -6.7125    0.0000 C   0  0  0  0  0  0  0  0  0  0  0  0
    3.2471   -6.9106    0.0000 C   0  0  0  0  0  0  0  0  0  0  0  0
    4.5995   -6.2618    0.0000 C   0  0  0  0  0  0  0  0  0  0  0  0
    5.8376   -7.1087    0.0000 O   0  0  0  0  0  0  0  0  0  0  0  0
    4.7139   -4.7662    0.0000 C   0  0  0  0  0  0  0  0  0  0  0  0
    3.4758   -3.9193    0.0000 C   0  0  0  0  0  0  0  0  0  0  0  0
    3.5902   -2.4237    0.0000 C   0  0  0  0  0  0  0  0  0  0  0  0
   -0.2384   -1.3787    0.0000 C   0  0  0  0  0  0  0  0  0  0  0  0
   -1.5908   -2.0275    0.0000 O   0  0  0  0  0  0  0  0  0  0  0  0
   -0.1240    0.1169    0.0000 N   0  0  0  0  0  0  0  0  0  0  0  0
   -1.3621    0.9638    0.0000 C   0  0  0  0  0  0  0  0  0  0  0  0
   -1.2477    2.4594    0.0000 C   0  0  0  0  0  0  0  0  0  0  0  0
   -2.4858    3.3063    0.0000 C   0  0  0  0  0  0  0  0  0  0  0  0
   -2.3714    4.8019    0.0000 C   0  0  0  0  0  0  0  0  0  0  0  0
   -3.6095    5.6488    0.0000 C   0  0  0  0  0  0  0  0  0  0  0  0
   -3.4951    7.1444    0.0000 N   0  0  0  0  0  0  0  0  0  0  0  0
   -2.7145    0.3150    0.0000 C   0  0  0  0  0  0  0  0  0  0  0  0
   -2.8289   -1.1806    0.0000 O   0  0  0  0  0  0  0  0  0  0  0  0
   -3.9526    1.1619    0.0000 N   0  0  0  0  0  0  0  0  0  0  0  0
   -5.3050    0.5131    0.0000 C   0  0  0  0  0  0  0  0  0  0  0  0
   -6.5431    1.3600    0.0000 C   0  0  0  0  0  0  0  0  0  0  0  0
   -7.8955    0.7113    0.0000 C   0  0  0  0  0  0  0  0  0  0  0  0
   -9.1336    1.5581    0.0000 C   0  0  0  0  0  0  0  0  0  0  0  0
  -10.4860    0.9094    0.0000 C   0  0  0  0  0  0  0  0  0  0  0  0
  -10.6004   -0.5863    0.0000 C   0  0  0  0  0  0  0  0  0  0  0  0
   -9.3624   -1.4331    0.0000 C   0  0  0  0  0  0  0  0  0  0  0  0
   -8.0099   -0.7844    0.0000 C   0  0  0  0  0  0  0  0  0  0  0  0
   -5.4194   -0.9825    0.0000 C   0  0  0  0  0  0  0  0  0  0  0  0
   -4.1813   -1.8294    0.0000 O   0  0  0  0  0  0  0  0  0  0  0  0
   -6.7718   -1.6313    0.0000 N   0  0  0  0  0  0  0  0  0  0  0  0
  1  2  1  0
  2  3  2  0
  2  4  1  0
  4  5  1  0
  5  6  1  1
  6  7  1  0
  7  8  1  0
  8  9  1  0
  9 10  1  0
 10 11  2  0
 10 12  1  0
  5 13  1  0
 13 14  2  0
 13 15  1  0
 15 16  1  0
 16 17  1  1
 17 18  1  0
 18 19  2  0
 19 20  1  0
 19 21  1  0
 21 22  2  0
 22 23  1  0
 22 24  1  0
 24 25  2  0
 25 26  1  0
 16 27  1  0
 27 28  2  0
 27 29  1  0
 29 30  1  0
 30 31  1  6
 31 32  1  0
 32 33  1  0
 33 34  1  0
 34 35  1  0
 30 36  1  0
 36 37  2  0
 36 38  1  0
 38 39  1  0
 39 40  1  6
 40 41  1  0
 41 42  2  0
 42 43  1  0
 43 44  2  0
 44 45  1  0
 45 46  2  0
 39 47  1  0
 47 48  2  0
 47 49  1  0
 25 18  1  0
 46 41  1  0
M  END
>  <evidence_status>  (6) 
research_hypothesis_unvalidated_here

>  <limits>  (6) 
Graph specification only; no oral PK or biological validation

$$$$
SPN10_D_Arg
     RDKit          2D

 49 52  0  0  0  0  0  0  0  0999 V2000
    5.2517   -3.4002    0.0000 N   0  0  0  0  0  0  0  0  0  0  0  0
    4.5068   -2.0982    0.0000 C   0  0  0  0  0  0  0  0  0  0  0  0
    5.2619   -0.8021    0.0000 C   0  0  0  0  0  0  0  0  0  0  0  0
    6.7619   -0.8080    0.0000 C   0  0  0  0  0  0  0  0  0  0  0  0
    7.6388   -2.0250    0.0000 C   0  0  0  0  0  0  0  0  0  0  0  0
    9.0672   -1.5671    0.0000 N   0  0  0  0  0  0  0  0  0  0  0  0
    9.0731   -0.0671    0.0000 C   0  0  0  0  0  0  0  0  0  0  0  0
   10.1918    0.9322    0.0000 C   0  0  0  0  0  0  0  0  0  0  0  0
    9.8857    2.4006    0.0000 C   0  0  0  0  0  0  0  0  0  0  0  0
    8.4609    2.8697    0.0000 C   0  0  0  0  0  0  0  0  0  0  0  0
    7.3422    1.8704    0.0000 C   0  0  0  0  0  0  0  0  0  0  0  0
    7.6483    0.4020    0.0000 C   0  0  0  0  0  0  0  0  0  0  0  0
    3.0068   -2.0923    0.0000 C   0  0  0  0  0  0  0  0  0  0  0  0
    2.2619   -0.7904    0.0000 O   0  0  0  0  0  0  0  0  0  0  0  0
    2.2517   -3.3884    0.0000 N   0  0  0  0  0  0  0  0  0  0  0  0
    0.7517   -3.3825    0.0000 C   0  0  0  0  0  0  0  0  0  0  0  0
   -0.0034   -4.6786    0.0000 C   0  0  0  0  0  0  0  0  0  0  0  0
   -1.5033   -4.6727    0.0000 C   0  0  0  0  0  0  0  0  0  0  0  0
   -2.2584   -5.9688    0.0000 C   0  0  0  0  0  0  0  0  0  0  0  0
   -3.7584   -5.9629    0.0000 N   0  0  0  0  0  0  0  0  0  0  0  0
   -4.5135   -7.2590    0.0000 C   0  0  0  0  0  0  0  0  0  0  0  0
   -3.7686   -8.5609    0.0000 N   0  0  0  0  0  0  0  0  0  0  0  0
   -6.0135   -7.2531    0.0000 N   0  0  0  0  0  0  0  0  0  0  0  0
    0.0069   -2.0805    0.0000 C   0  0  0  0  0  0  0  0  0  0  0  0
    0.7620   -0.7845    0.0000 O   0  0  0  0  0  0  0  0  0  0  0  0
   -1.4931   -2.0746    0.0000 N   0  0  0  0  0  0  0  0  0  0  0  0
   -2.2380   -0.7727    0.0000 C   0  0  0  0  0  0  0  0  0  0  0  0
   -3.7380   -0.7668    0.0000 C   0  0  0  0  0  0  0  0  0  0  0  0
   -4.4829    0.5352    0.0000 C   0  0  0  0  0  0  0  0  0  0  0  0
   -3.8674    1.9031    0.0000 C   0  0  0  0  0  0  0  0  0  0  0  0
   -4.9782    2.9112    0.0000 N   0  0  0  0  0  0  0  0  0  0  0  0
   -6.2802    2.1663    0.0000 C   0  0  0  0  0  0  0  0  0  0  0  0
   -7.7049    2.6354    0.0000 C   0  0  0  0  0  0  0  0  0  0  0  0
   -8.8236    1.6361    0.0000 C   0  0  0  0  0  0  0  0  0  0  0  0
   -8.5175    0.1677    0.0000 C   0  0  0  0  0  0  0  0  0  0  0  0
   -7.0927   -0.3015    0.0000 C   0  0  0  0  0  0  0  0  0  0  0  0
   -5.9741    0.6979    0.0000 C   0  0  0  0  0  0  0  0  0  0  0  0
   -1.4829    0.5234    0.0000 C   0  0  0  0  0  0  0  0  0  0  0  0
    0.0171    0.5175    0.0000 O   0  0  0  0  0  0  0  0  0  0  0  0
   -2.2278    1.8254    0.0000 N   0  0  0  0  0  0  0  0  0  0  0  0
   -1.4727    3.1215    0.0000 C   0  0  0  0  0  0  0  0  0  0  0  0
   -2.2176    4.4234    0.0000 C   0  0  0  0  0  0  0  0  0  0  0  0
   -1.4625    5.7195    0.0000 C   0  0  0  0  0  0  0  0  0  0  0  0
   -2.2074    7.0215    0.0000 C   0  0  0  0  0  0  0  0  0  0  0  0
   -1.4523    8.3176    0.0000 C   0  0  0  0  0  0  0  0  0  0  0  0
   -2.1972    9.6196    0.0000 N   0  0  0  0  0  0  0  0  0  0  0  0
    0.0273    3.1156    0.0000 C   0  0  0  0  0  0  0  0  0  0  0  0
    0.7722    1.8136    0.0000 O   0  0  0  0  0  0  0  0  0  0  0  0
    0.7824    4.4116    0.0000 N   0  0  0  0  0  0  0  0  0  0  0  0
  2  1  1  6
  2  3  1  0
  3  4  1  0
  4  5  2  0
  5  6  1  0
  6  7  1  0
  7  8  2  0
  8  9  1  0
  9 10  2  0
 10 11  1  0
 11 12  2  0
  2 13  1  0
 13 14  2  0
 13 15  1  0
 15 16  1  0
 16 17  1  6
 17 18  1  0
 18 19  1  0
 19 20  1  0
 20 21  1  0
 21 22  2  0
 21 23  1  0
 16 24  1  0
 24 25  2  0
 24 26  1  0
 26 27  1  0
 27 28  1  1
 28 29  1  0
 29 30  2  0
 30 31  1  0
 31 32  1  0
 32 33  2  0
 33 34  1  0
 34 35  2  0
 35 36  1  0
 36 37  2  0
 27 38  1  0
 38 39  2  0
 38 40  1  0
 40 41  1  0
 41 42  1  1
 42 43  1  0
 43 44  1  0
 44 45  1  0
 45 46  1  0
 41 47  1  0
 47 48  2  0
 47 49  1  0
 12  4  1  0
 37 29  1  0
 12  7  1  0
 37 32  1  0
M  END
>  <evidence_status>  (7) 
research_hypothesis_unvalidated_here

>  <limits>  (7) 
Graph specification only; no oral PK or biological validation

$$$$
SPN10_terminal_D_Lys
     RDKit          2D

 49 52  0  0  0  0  0  0  0  0999 V2000
    5.2517   -3.4002    0.0000 N   0  0  0  0  0  0  0  0  0  0  0  0
    4.5068   -2.0982    0.0000 C   0  0  0  0  0  0  0  0  0  0  0  0
    5.2619   -0.8021    0.0000 C   0  0  0  0  0  0  0  0  0  0  0  0
    6.7619   -0.8080    0.0000 C   0  0  0  0  0  0  0  0  0  0  0  0
    7.6388   -2.0250    0.0000 C   0  0  0  0  0  0  0  0  0  0  0  0
    9.0672   -1.5671    0.0000 N   0  0  0  0  0  0  0  0  0  0  0  0
    9.0731   -0.0671    0.0000 C   0  0  0  0  0  0  0  0  0  0  0  0
   10.1918    0.9322    0.0000 C   0  0  0  0  0  0  0  0  0  0  0  0
    9.8857    2.4006    0.0000 C   0  0  0  0  0  0  0  0  0  0  0  0
    8.4609    2.8697    0.0000 C   0  0  0  0  0  0  0  0  0  0  0  0
    7.3422    1.8704    0.0000 C   0  0  0  0  0  0  0  0  0  0  0  0
    7.6483    0.4020    0.0000 C   0  0  0  0  0  0  0  0  0  0  0  0
    3.0068   -2.0923    0.0000 C   0  0  0  0  0  0  0  0  0  0  0  0
    2.2619   -0.7904    0.0000 O   0  0  0  0  0  0  0  0  0  0  0  0
    2.2517   -3.3884    0.0000 N   0  0  0  0  0  0  0  0  0  0  0  0
    0.7517   -3.3825    0.0000 C   0  0  0  0  0  0  0  0  0  0  0  0
   -0.0034   -4.6786    0.0000 C   0  0  0  0  0  0  0  0  0  0  0  0
   -1.5033   -4.6727    0.0000 C   0  0  0  0  0  0  0  0  0  0  0  0
   -2.2584   -5.9688    0.0000 C   0  0  0  0  0  0  0  0  0  0  0  0
   -3.7584   -5.9629    0.0000 N   0  0  0  0  0  0  0  0  0  0  0  0
   -4.5135   -7.2590    0.0000 C   0  0  0  0  0  0  0  0  0  0  0  0
   -3.7686   -8.5609    0.0000 N   0  0  0  0  0  0  0  0  0  0  0  0
   -6.0135   -7.2531    0.0000 N   0  0  0  0  0  0  0  0  0  0  0  0
    0.0069   -2.0805    0.0000 C   0  0  0  0  0  0  0  0  0  0  0  0
    0.7620   -0.7845    0.0000 O   0  0  0  0  0  0  0  0  0  0  0  0
   -1.4931   -2.0746    0.0000 N   0  0  0  0  0  0  0  0  0  0  0  0
   -2.2380   -0.7727    0.0000 C   0  0  0  0  0  0  0  0  0  0  0  0
   -3.7380   -0.7668    0.0000 C   0  0  0  0  0  0  0  0  0  0  0  0
   -4.4829    0.5352    0.0000 C   0  0  0  0  0  0  0  0  0  0  0  0
   -3.8674    1.9031    0.0000 C   0  0  0  0  0  0  0  0  0  0  0  0
   -4.9782    2.9112    0.0000 N   0  0  0  0  0  0  0  0  0  0  0  0
   -6.2802    2.1663    0.0000 C   0  0  0  0  0  0  0  0  0  0  0  0
   -7.7049    2.6354    0.0000 C   0  0  0  0  0  0  0  0  0  0  0  0
   -8.8236    1.6361    0.0000 C   0  0  0  0  0  0  0  0  0  0  0  0
   -8.5175    0.1677    0.0000 C   0  0  0  0  0  0  0  0  0  0  0  0
   -7.0927   -0.3015    0.0000 C   0  0  0  0  0  0  0  0  0  0  0  0
   -5.9741    0.6979    0.0000 C   0  0  0  0  0  0  0  0  0  0  0  0
   -1.4829    0.5234    0.0000 C   0  0  0  0  0  0  0  0  0  0  0  0
    0.0171    0.5175    0.0000 O   0  0  0  0  0  0  0  0  0  0  0  0
   -2.2278    1.8254    0.0000 N   0  0  0  0  0  0  0  0  0  0  0  0
   -1.4727    3.1215    0.0000 C   0  0  0  0  0  0  0  0  0  0  0  0
   -2.2176    4.4234    0.0000 C   0  0  0  0  0  0  0  0  0  0  0  0
   -1.4625    5.7195    0.0000 C   0  0  0  0  0  0  0  0  0  0  0  0
   -2.2074    7.0215    0.0000 C   0  0  0  0  0  0  0  0  0  0  0  0
   -1.4523    8.3176    0.0000 C   0  0  0  0  0  0  0  0  0  0  0  0
   -2.1972    9.6196    0.0000 N   0  0  0  0  0  0  0  0  0  0  0  0
    0.0273    3.1156    0.0000 C   0  0  0  0  0  0  0  0  0  0  0  0
    0.7722    1.8136    0.0000 O   0  0  0  0  0  0  0  0  0  0  0  0
    0.7824    4.4116    0.0000 N   0  0  0  0  0  0  0  0  0  0  0  0
  2  1  1  6
  2  3  1  0
  3  4  1  0
  4  5  2  0
  5  6  1  0
  6  7  1  0
  7  8  2  0
  8  9  1  0
  9 10  2  0
 10 11  1  0
 11 12  2  0
  2 13  1  0
 13 14  2  0
 13 15  1  0
 15 16  1  0
 16 17  1  1
 17 18  1  0
 18 19  1  0
 19 20  1  0
 20 21  1  0
 21 22  2  0
 21 23  1  0
 16 24  1  0
 24 25  2  0
 24 26  1  0
 26 27  1  0
 27 28  1  1
 28 29  1  0
 29 30  2  0
 30 31  1  0
 31 32  1  0
 32 33  2  0
 33 34  1  0
 34 35  2  0
 35 36  1  0
 36 37  2  0
 27 38  1  0
 38 39  2  0
 38 40  1  0
 40 41  1  0
 41 42  1  6
 42 43  1  0
 43 44  1  0
 44 45  1  0
 45 46  1  0
 41 47  1  0
 47 48  2  0
 47 49  1  0
 12  4  1  0
 37 29  1  0
 12  7  1  0
 37 32  1  0
M  END
>  <evidence_status>  (8) 
research_hypothesis_unvalidated_here

>  <limits>  (8) 
Graph specification only; no oral PK or biological validation

$$$$
SS31_Phe_backbone_N_methyl
     RDKit          2D

 47 48  0  0  0  0  0  0  0  0999 V2000
    4.8826    1.9843    0.0000 N   0  0  0  0  0  0  0  0  0  0  0  0
    3.3847    2.0633    0.0000 C   0  0  0  0  0  0  0  0  0  0  0  0
    2.7041    3.4001    0.0000 C   0  0  0  0  0  0  0  0  0  0  0  0
    3.5215    4.6578    0.0000 C   0  0  0  0  0  0  0  0  0  0  0  0
    2.8410    5.9946    0.0000 C   0  0  0  0  0  0  0  0  0  0  0  0
    3.6584    7.2523    0.0000 N   0  0  0  0  0  0  0  0  0  0  0  0
    2.9778    8.5890    0.0000 C   0  0  0  0  0  0  0  0  0  0  0  0
    1.4799    8.6680    0.0000 N   0  0  0  0  0  0  0  0  0  0  0  0
    3.7952    9.8468    0.0000 N   0  0  0  0  0  0  0  0  0  0  0  0
    2.5673    0.8056    0.0000 C   0  0  0  0  0  0  0  0  0  0  0  0
    1.0694    0.8846    0.0000 O   0  0  0  0  0  0  0  0  0  0  0  0
    3.2478   -0.5311    0.0000 N   0  0  0  0  0  0  0  0  0  0  0  0
    2.4304   -1.7889    0.0000 C   0  0  0  0  0  0  0  0  0  0  0  0
    3.1110   -3.1256    0.0000 C   0  0  0  0  0  0  0  0  0  0  0  0
    4.6089   -3.2046    0.0000 C   0  0  0  0  0  0  0  0  0  0  0  0
    5.2894   -4.5413    0.0000 C   0  0  0  0  0  0  0  0  0  0  0  0
    4.4720   -5.7991    0.0000 C   0  0  0  0  0  0  0  0  0  0  0  0
    6.7873   -4.6204    0.0000 C   0  0  0  0  0  0  0  0  0  0  0  0
    7.6047   -3.3626    0.0000 C   0  0  0  0  0  0  0  0  0  0  0  0
    9.1026   -3.4416    0.0000 O   0  0  0  0  0  0  0  0  0  0  0  0
    6.9242   -2.0259    0.0000 C   0  0  0  0  0  0  0  0  0  0  0  0
    5.4263   -1.9469    0.0000 C   0  0  0  0  0  0  0  0  0  0  0  0
    4.7457   -0.6101    0.0000 C   0  0  0  0  0  0  0  0  0  0  0  0
    0.9325   -1.7098    0.0000 C   0  0  0  0  0  0  0  0  0  0  0  0
    0.1151   -2.9676    0.0000 O   0  0  0  0  0  0  0  0  0  0  0  0
    0.2520   -0.3731    0.0000 N   0  0  0  0  0  0  0  0  0  0  0  0
   -1.2459   -0.2941    0.0000 C   0  0  0  0  0  0  0  0  0  0  0  0
   -1.9265    1.0427    0.0000 C   0  0  0  0  0  0  0  0  0  0  0  0
   -3.4244    1.1217    0.0000 C   0  0  0  0  0  0  0  0  0  0  0  0
   -4.1049    2.4584    0.0000 C   0  0  0  0  0  0  0  0  0  0  0  0
   -5.6028    2.5374    0.0000 C   0  0  0  0  0  0  0  0  0  0  0  0
   -6.2834    3.8742    0.0000 N   0  0  0  0  0  0  0  0  0  0  0  0
   -2.0633   -1.5518    0.0000 C   0  0  0  0  0  0  0  0  0  0  0  0
   -1.3828   -2.8886    0.0000 O   0  0  0  0  0  0  0  0  0  0  0  0
   -3.5612   -1.4728    0.0000 N   0  0  0  0  0  0  0  0  0  0  0  0
   -4.2418   -0.1361    0.0000 C   0  0  0  0  0  0  0  0  0  0  0  0
   -4.3786   -2.7305    0.0000 C   0  0  0  0  0  0  0  0  0  0  0  0
   -5.8765   -2.6515    0.0000 C   0  0  0  0  0  0  0  0  0  0  0  0
   -6.5571   -1.3148    0.0000 C   0  0  0  0  0  0  0  0  0  0  0  0
   -5.7397   -0.0571    0.0000 C   0  0  0  0  0  0  0  0  0  0  0  0
   -6.4202    1.2797    0.0000 C   0  0  0  0  0  0  0  0  0  0  0  0
   -7.9181    1.3587    0.0000 C   0  0  0  0  0  0  0  0  0  0  0  0
   -8.7355    0.1010    0.0000 C   0  0  0  0  0  0  0  0  0  0  0  0
   -8.0550   -1.2358    0.0000 C   0  0  0  0  0  0  0  0  0  0  0  0
   -3.6981   -4.0673    0.0000 C   0  0  0  0  0  0  0  0  0  0  0  0
   -2.2002   -4.1463    0.0000 O   0  0  0  0  0  0  0  0  0  0  0  0
   -4.5155   -5.3250    0.0000 N   0  0  0  0  0  0  0  0  0  0  0  0
  2  1  1  1
  2  3  1  0
  3  4  1  0
  4  5  1  0
  5  6  1  0
  6  7  1  0
  7  8  2  0
  7  9  1  0
  2 10  1  0
 10 11  2  0
 10 12  1  0
 12 13  1  0
 13 14  1  1
 14 15  1  0
 15 16  2  0
 16 17  1  0
 16 18  1  0
 18 19  2  0
 19 20  1  0
 19 21  1  0
 21 22  2  0
 22 23  1  0
 13 24  1  0
 24 25  2  0
 24 26  1  0
 26 27  1  0
 27 28  1  6
 28 29  1  0
 29 30  1  0
 30 31  1  0
 31 32  1  0
 27 33  1  0
 33 34  2  0
 33 35  1  0
 35 36  1  0
 35 37  1  0
 37 38  1  6
 38 39  1  0
 39 40  2  0
 40 41  1  0
 41 42  2  0
 42 43  1  0
 43 44  2  0
 37 45  1  0
 45 46  2  0
 45 47  1  0
 22 15  1  0
 44 39  1  0
M  END
>  <evidence_status>  (9) 
patent_described_hypothesis_unvalidated_here

>  <limits>  (9) 
Graph specification only; no oral PK or biological validation

$$$$
